*SPEF "ieee 1481-1999"
*DESIGN "user_proj_example1"
*DATE "11:11:11 Fri 11 11, 1111"
*VENDOR "OpenRCX"
*PROGRAM "Parallel Extraction"
*VERSION "1.0"
*DESIGN_FLOW "NAME_SCOPE LOCAL" "PIN_CAP NONE"
*DIVIDER /
*DELIMITER :
*BUS_DELIMITER []
*T_UNIT 1 NS
*C_UNIT 1 PF
*R_UNIT 1 OHM
*L_UNIT 1 HENRY

*NAME_MAP
*1 io_in[0]
*2 io_in[10]
*3 io_in[11]
*4 io_in[1]
*5 io_in[2]
*6 io_in[3]
*7 io_in[4]
*8 io_in[5]
*9 io_in[6]
*10 io_in[7]
*11 io_in[8]
*12 io_in[9]
*13 net27
*14 net37
*15 net38
*16 net28
*17 net29
*18 net30
*19 net31
*20 net32
*21 net33
*22 net34
*23 net35
*24 net36
*25 io_out[0]
*26 io_out[10]
*27 net39
*28 io_out[1]
*29 io_out[2]
*30 io_out[3]
*31 io_out[4]
*32 io_out[5]
*33 io_out[6]
*34 io_out[7]
*35 io_out[8]
*36 io_out[9]
*39 wb_clk_i
*40 wb_rst_i
*41 Clock_part1\.dig_cnt\[0\]
*42 Clock_part1\.dig_cnt\[1\]
*43 Clock_part1\.min_ones\[0\]
*44 Clock_part1\.min_ones\[1\]
*45 Clock_part1\.min_ones\[2\]
*46 Clock_part1\.min_ones\[3\]
*47 Clock_part1\.min_tens\[0\]
*48 Clock_part1\.min_tens\[1\]
*49 Clock_part1\.min_tens\[2\]
*50 Clock_part1\.min_tens\[3\]
*51 Clock_part1\.scan
*52 Clock_part1\.scan_div\[0\]
*53 Clock_part1\.scan_div\[10\]
*54 Clock_part1\.scan_div\[11\]
*55 Clock_part1\.scan_div\[12\]
*56 Clock_part1\.scan_div\[13\]
*57 Clock_part1\.scan_div\[14\]
*58 Clock_part1\.scan_div\[15\]
*59 Clock_part1\.scan_div\[16\]
*60 Clock_part1\.scan_div\[17\]
*61 Clock_part1\.scan_div\[18\]
*62 Clock_part1\.scan_div\[19\]
*63 Clock_part1\.scan_div\[1\]
*64 Clock_part1\.scan_div\[20\]
*65 Clock_part1\.scan_div\[21\]
*66 Clock_part1\.scan_div\[22\]
*67 Clock_part1\.scan_div\[23\]
*68 Clock_part1\.scan_div\[24\]
*69 Clock_part1\.scan_div\[25\]
*70 Clock_part1\.scan_div\[26\]
*71 Clock_part1\.scan_div\[27\]
*72 Clock_part1\.scan_div\[28\]
*73 Clock_part1\.scan_div\[29\]
*74 Clock_part1\.scan_div\[2\]
*75 Clock_part1\.scan_div\[30\]
*76 Clock_part1\.scan_div\[31\]
*77 Clock_part1\.scan_div\[3\]
*78 Clock_part1\.scan_div\[4\]
*79 Clock_part1\.scan_div\[5\]
*80 Clock_part1\.scan_div\[6\]
*81 Clock_part1\.scan_div\[7\]
*82 Clock_part1\.scan_div\[8\]
*83 Clock_part1\.scan_div\[9\]
*84 Clock_part1\.sec
*85 Clock_part1\.sec_div\[0\]
*86 Clock_part1\.sec_div\[10\]
*87 Clock_part1\.sec_div\[11\]
*88 Clock_part1\.sec_div\[12\]
*89 Clock_part1\.sec_div\[13\]
*90 Clock_part1\.sec_div\[14\]
*91 Clock_part1\.sec_div\[15\]
*92 Clock_part1\.sec_div\[16\]
*93 Clock_part1\.sec_div\[17\]
*94 Clock_part1\.sec_div\[18\]
*95 Clock_part1\.sec_div\[19\]
*96 Clock_part1\.sec_div\[1\]
*97 Clock_part1\.sec_div\[20\]
*98 Clock_part1\.sec_div\[21\]
*99 Clock_part1\.sec_div\[22\]
*100 Clock_part1\.sec_div\[23\]
*101 Clock_part1\.sec_div\[24\]
*102 Clock_part1\.sec_div\[25\]
*103 Clock_part1\.sec_div\[26\]
*104 Clock_part1\.sec_div\[27\]
*105 Clock_part1\.sec_div\[28\]
*106 Clock_part1\.sec_div\[29\]
*107 Clock_part1\.sec_div\[2\]
*108 Clock_part1\.sec_div\[30\]
*109 Clock_part1\.sec_div\[31\]
*110 Clock_part1\.sec_div\[3\]
*111 Clock_part1\.sec_div\[4\]
*112 Clock_part1\.sec_div\[5\]
*113 Clock_part1\.sec_div\[6\]
*114 Clock_part1\.sec_div\[7\]
*115 Clock_part1\.sec_div\[8\]
*116 Clock_part1\.sec_div\[9\]
*117 Clock_part1\.sec_ones\[0\]
*118 Clock_part1\.sec_ones\[1\]
*119 Clock_part1\.sec_ones\[2\]
*120 Clock_part1\.sec_ones\[3\]
*121 Clock_part1\.sec_tens\[0\]
*122 Clock_part1\.sec_tens\[1\]
*123 Clock_part1\.sec_tens\[2\]
*124 Clock_part1\.sec_tens\[3\]
*125 _000_
*126 _001_
*127 _002_
*128 _003_
*129 _004_
*130 _005_
*131 _006_
*132 _007_
*133 _008_
*134 _009_
*135 _010_
*136 _011_
*137 _012_
*138 _013_
*139 _014_
*140 _015_
*141 _016_
*142 _017_
*143 _018_
*144 _019_
*145 _020_
*146 _021_
*147 _022_
*148 _023_
*149 _024_
*150 _025_
*151 _026_
*152 _027_
*153 _028_
*154 _029_
*155 _030_
*156 _031_
*157 _032_
*158 _033_
*159 _034_
*160 _035_
*161 _036_
*162 _037_
*163 _038_
*164 _039_
*165 _040_
*166 _041_
*167 _042_
*168 _043_
*169 _044_
*170 _045_
*171 _046_
*172 _047_
*173 _048_
*174 _049_
*175 _050_
*176 _051_
*177 _052_
*178 _053_
*179 _054_
*180 _055_
*181 _056_
*182 _057_
*183 _058_
*184 _059_
*185 _060_
*186 _061_
*187 _062_
*188 _063_
*189 _064_
*190 _065_
*191 _066_
*192 _067_
*193 _068_
*194 _069_
*195 _070_
*196 _071_
*197 _072_
*198 _073_
*199 _074_
*200 _075_
*201 _076_
*202 _077_
*203 _078_
*204 _079_
*205 _080_
*206 _081_
*207 _082_
*208 _083_
*209 _084_
*210 _085_
*211 _086_
*212 _087_
*213 _088_
*214 _089_
*215 _090_
*216 _091_
*217 _092_
*218 _093_
*219 _094_
*220 _095_
*221 _096_
*222 _097_
*223 _098_
*224 _099_
*225 _100_
*226 _101_
*227 _102_
*228 _103_
*229 _104_
*230 _105_
*231 _106_
*232 _107_
*233 _108_
*234 _109_
*235 _110_
*236 _111_
*237 _112_
*238 _113_
*239 _114_
*240 _115_
*241 _116_
*242 _117_
*243 _118_
*244 _119_
*245 _120_
*246 _121_
*247 _122_
*248 _123_
*249 _124_
*250 _125_
*251 _126_
*252 _127_
*253 _128_
*254 _129_
*255 _130_
*256 _131_
*257 _132_
*258 _133_
*259 _134_
*260 _135_
*261 _136_
*262 _137_
*263 _138_
*264 _139_
*265 _140_
*266 _141_
*267 _142_
*268 _143_
*269 _144_
*270 _145_
*271 _146_
*272 _147_
*273 _148_
*274 _149_
*275 _150_
*276 _151_
*277 _152_
*278 _153_
*279 _154_
*280 _155_
*281 _156_
*282 _157_
*283 _158_
*284 _159_
*285 _160_
*286 _161_
*287 _162_
*288 _163_
*289 _164_
*290 _165_
*291 _166_
*292 _167_
*293 _168_
*294 _169_
*295 _170_
*296 _171_
*297 _172_
*298 _173_
*299 _174_
*300 _175_
*301 _176_
*302 _177_
*303 _178_
*304 _179_
*305 _180_
*306 _181_
*307 _182_
*308 _183_
*309 _184_
*310 _185_
*311 _186_
*312 _187_
*313 _188_
*314 _189_
*315 _190_
*316 _191_
*317 _192_
*318 _193_
*319 _194_
*320 _195_
*321 _196_
*322 _197_
*323 _198_
*324 _199_
*325 _200_
*326 _201_
*327 _202_
*328 _203_
*329 _204_
*330 _205_
*331 _206_
*332 _207_
*333 _208_
*334 _209_
*335 _210_
*336 _211_
*337 _212_
*338 _213_
*339 _214_
*340 _215_
*341 _216_
*342 _217_
*343 _218_
*344 _219_
*345 _220_
*346 _221_
*347 _222_
*348 _223_
*349 _224_
*350 _225_
*351 _226_
*352 _227_
*353 _228_
*354 _229_
*355 _230_
*356 _231_
*357 _232_
*358 _233_
*359 _234_
*360 _235_
*361 _236_
*362 _237_
*363 _238_
*364 _239_
*365 _240_
*366 _241_
*367 _242_
*368 _243_
*369 _244_
*370 _245_
*371 _246_
*372 _247_
*373 _248_
*374 _249_
*375 _250_
*376 _251_
*377 _252_
*378 _253_
*379 _254_
*380 _255_
*381 _256_
*382 _257_
*383 _258_
*384 _259_
*385 _260_
*386 _261_
*387 _262_
*388 _263_
*389 _264_
*390 _265_
*391 _266_
*392 _267_
*393 _268_
*394 _269_
*395 _270_
*396 _271_
*397 _272_
*398 _273_
*399 _274_
*400 _275_
*401 _276_
*402 _277_
*403 _278_
*404 _279_
*405 _280_
*406 _281_
*407 _282_
*408 _283_
*409 _284_
*410 _285_
*411 _286_
*412 _287_
*413 _288_
*414 _289_
*415 _290_
*416 _291_
*417 _292_
*418 _293_
*419 _294_
*420 _295_
*421 _296_
*422 _297_
*423 _298_
*424 _299_
*425 _300_
*426 _301_
*427 _302_
*428 _303_
*429 _304_
*430 _305_
*431 _306_
*432 _307_
*433 _308_
*434 _309_
*435 _310_
*436 _311_
*437 _312_
*438 _313_
*439 _314_
*440 _315_
*441 _316_
*442 _317_
*443 _318_
*444 _319_
*445 _320_
*446 _321_
*447 _322_
*448 _323_
*449 _324_
*450 clknet_0_wb_clk_i
*451 clknet_3_0__leaf_wb_clk_i
*452 clknet_3_1__leaf_wb_clk_i
*453 clknet_3_2__leaf_wb_clk_i
*454 clknet_3_3__leaf_wb_clk_i
*455 clknet_3_4__leaf_wb_clk_i
*456 clknet_3_5__leaf_wb_clk_i
*457 clknet_3_6__leaf_wb_clk_i
*458 clknet_3_7__leaf_wb_clk_i
*459 net1
*460 net10
*461 net11
*462 net12
*463 net13
*464 net14
*465 net15
*466 net16
*467 net17
*468 net18
*469 net19
*470 net2
*471 net20
*472 net21
*473 net22
*474 net23
*475 net24
*476 net25
*477 net26
*478 net3
*479 net4
*480 net5
*481 net6
*482 net7
*483 net8
*484 net9
*485 FILLER_0_0_109
*486 FILLER_0_0_113
*487 FILLER_0_0_125
*488 FILLER_0_0_137
*489 FILLER_0_0_141
*490 FILLER_0_0_15
*491 FILLER_0_0_153
*492 FILLER_0_0_165
*493 FILLER_0_0_169
*494 FILLER_0_0_181
*495 FILLER_0_0_193
*496 FILLER_0_0_197
*497 FILLER_0_0_209
*498 FILLER_0_0_221
*499 FILLER_0_0_225
*500 FILLER_0_0_237
*501 FILLER_0_0_249
*502 FILLER_0_0_253
*503 FILLER_0_0_265
*504 FILLER_0_0_27
*505 FILLER_0_0_277
*506 FILLER_0_0_281
*507 FILLER_0_0_29
*508 FILLER_0_0_293
*509 FILLER_0_0_3
*510 FILLER_0_0_305
*511 FILLER_0_0_309
*512 FILLER_0_0_313
*513 FILLER_0_0_317
*514 FILLER_0_0_329
*515 FILLER_0_0_335
*516 FILLER_0_0_337
*517 FILLER_0_0_349
*518 FILLER_0_0_361
*519 FILLER_0_0_365
*520 FILLER_0_0_377
*521 FILLER_0_0_389
*522 FILLER_0_0_393
*523 FILLER_0_0_405
*524 FILLER_0_0_41
*525 FILLER_0_0_53
*526 FILLER_0_0_57
*527 FILLER_0_0_69
*528 FILLER_0_0_81
*529 FILLER_0_0_85
*530 FILLER_0_0_97
*531 FILLER_0_1000_109
*532 FILLER_0_1000_121
*533 FILLER_0_1000_133
*534 FILLER_0_1000_139
*535 FILLER_0_1000_141
*536 FILLER_0_1000_15
*537 FILLER_0_1000_153
*538 FILLER_0_1000_165
*539 FILLER_0_1000_177
*540 FILLER_0_1000_189
*541 FILLER_0_1000_195
*542 FILLER_0_1000_197
*543 FILLER_0_1000_209
*544 FILLER_0_1000_221
*545 FILLER_0_1000_233
*546 FILLER_0_1000_245
*547 FILLER_0_1000_251
*548 FILLER_0_1000_253
*549 FILLER_0_1000_265
*550 FILLER_0_1000_27
*551 FILLER_0_1000_277
*552 FILLER_0_1000_289
*553 FILLER_0_1000_29
*554 FILLER_0_1000_3
*555 FILLER_0_1000_301
*556 FILLER_0_1000_307
*557 FILLER_0_1000_309
*558 FILLER_0_1000_321
*559 FILLER_0_1000_333
*560 FILLER_0_1000_345
*561 FILLER_0_1000_357
*562 FILLER_0_1000_363
*563 FILLER_0_1000_365
*564 FILLER_0_1000_377
*565 FILLER_0_1000_389
*566 FILLER_0_1000_401
*567 FILLER_0_1000_41
*568 FILLER_0_1000_53
*569 FILLER_0_1000_65
*570 FILLER_0_1000_77
*571 FILLER_0_1000_83
*572 FILLER_0_1000_85
*573 FILLER_0_1000_97
*574 FILLER_0_1001_105
*575 FILLER_0_1001_111
*576 FILLER_0_1001_113
*577 FILLER_0_1001_125
*578 FILLER_0_1001_137
*579 FILLER_0_1001_149
*580 FILLER_0_1001_15
*581 FILLER_0_1001_161
*582 FILLER_0_1001_167
*583 FILLER_0_1001_169
*584 FILLER_0_1001_181
*585 FILLER_0_1001_193
*586 FILLER_0_1001_205
*587 FILLER_0_1001_217
*588 FILLER_0_1001_223
*589 FILLER_0_1001_225
*590 FILLER_0_1001_237
*591 FILLER_0_1001_249
*592 FILLER_0_1001_261
*593 FILLER_0_1001_27
*594 FILLER_0_1001_273
*595 FILLER_0_1001_279
*596 FILLER_0_1001_281
*597 FILLER_0_1001_293
*598 FILLER_0_1001_3
*599 FILLER_0_1001_305
*600 FILLER_0_1001_317
*601 FILLER_0_1001_329
*602 FILLER_0_1001_335
*603 FILLER_0_1001_337
*604 FILLER_0_1001_349
*605 FILLER_0_1001_361
*606 FILLER_0_1001_373
*607 FILLER_0_1001_385
*608 FILLER_0_1001_39
*609 FILLER_0_1001_391
*610 FILLER_0_1001_393
*611 FILLER_0_1001_405
*612 FILLER_0_1001_51
*613 FILLER_0_1001_55
*614 FILLER_0_1001_57
*615 FILLER_0_1001_69
*616 FILLER_0_1001_81
*617 FILLER_0_1001_93
*618 FILLER_0_1002_109
*619 FILLER_0_1002_121
*620 FILLER_0_1002_133
*621 FILLER_0_1002_139
*622 FILLER_0_1002_141
*623 FILLER_0_1002_15
*624 FILLER_0_1002_153
*625 FILLER_0_1002_165
*626 FILLER_0_1002_177
*627 FILLER_0_1002_189
*628 FILLER_0_1002_195
*629 FILLER_0_1002_197
*630 FILLER_0_1002_209
*631 FILLER_0_1002_221
*632 FILLER_0_1002_233
*633 FILLER_0_1002_245
*634 FILLER_0_1002_251
*635 FILLER_0_1002_253
*636 FILLER_0_1002_265
*637 FILLER_0_1002_27
*638 FILLER_0_1002_277
*639 FILLER_0_1002_289
*640 FILLER_0_1002_29
*641 FILLER_0_1002_3
*642 FILLER_0_1002_301
*643 FILLER_0_1002_307
*644 FILLER_0_1002_309
*645 FILLER_0_1002_321
*646 FILLER_0_1002_333
*647 FILLER_0_1002_345
*648 FILLER_0_1002_357
*649 FILLER_0_1002_363
*650 FILLER_0_1002_365
*651 FILLER_0_1002_377
*652 FILLER_0_1002_389
*653 FILLER_0_1002_401
*654 FILLER_0_1002_41
*655 FILLER_0_1002_53
*656 FILLER_0_1002_65
*657 FILLER_0_1002_77
*658 FILLER_0_1002_83
*659 FILLER_0_1002_85
*660 FILLER_0_1002_97
*661 FILLER_0_1003_105
*662 FILLER_0_1003_111
*663 FILLER_0_1003_113
*664 FILLER_0_1003_125
*665 FILLER_0_1003_137
*666 FILLER_0_1003_149
*667 FILLER_0_1003_15
*668 FILLER_0_1003_161
*669 FILLER_0_1003_167
*670 FILLER_0_1003_169
*671 FILLER_0_1003_181
*672 FILLER_0_1003_193
*673 FILLER_0_1003_205
*674 FILLER_0_1003_217
*675 FILLER_0_1003_223
*676 FILLER_0_1003_225
*677 FILLER_0_1003_237
*678 FILLER_0_1003_249
*679 FILLER_0_1003_261
*680 FILLER_0_1003_27
*681 FILLER_0_1003_273
*682 FILLER_0_1003_279
*683 FILLER_0_1003_281
*684 FILLER_0_1003_293
*685 FILLER_0_1003_3
*686 FILLER_0_1003_305
*687 FILLER_0_1003_317
*688 FILLER_0_1003_329
*689 FILLER_0_1003_335
*690 FILLER_0_1003_337
*691 FILLER_0_1003_349
*692 FILLER_0_1003_361
*693 FILLER_0_1003_373
*694 FILLER_0_1003_385
*695 FILLER_0_1003_39
*696 FILLER_0_1003_391
*697 FILLER_0_1003_393
*698 FILLER_0_1003_405
*699 FILLER_0_1003_51
*700 FILLER_0_1003_55
*701 FILLER_0_1003_57
*702 FILLER_0_1003_69
*703 FILLER_0_1003_81
*704 FILLER_0_1003_93
*705 FILLER_0_1004_109
*706 FILLER_0_1004_121
*707 FILLER_0_1004_133
*708 FILLER_0_1004_139
*709 FILLER_0_1004_141
*710 FILLER_0_1004_15
*711 FILLER_0_1004_153
*712 FILLER_0_1004_165
*713 FILLER_0_1004_177
*714 FILLER_0_1004_189
*715 FILLER_0_1004_195
*716 FILLER_0_1004_197
*717 FILLER_0_1004_209
*718 FILLER_0_1004_221
*719 FILLER_0_1004_233
*720 FILLER_0_1004_245
*721 FILLER_0_1004_251
*722 FILLER_0_1004_253
*723 FILLER_0_1004_265
*724 FILLER_0_1004_27
*725 FILLER_0_1004_277
*726 FILLER_0_1004_289
*727 FILLER_0_1004_29
*728 FILLER_0_1004_3
*729 FILLER_0_1004_301
*730 FILLER_0_1004_307
*731 FILLER_0_1004_309
*732 FILLER_0_1004_321
*733 FILLER_0_1004_333
*734 FILLER_0_1004_345
*735 FILLER_0_1004_357
*736 FILLER_0_1004_363
*737 FILLER_0_1004_365
*738 FILLER_0_1004_377
*739 FILLER_0_1004_389
*740 FILLER_0_1004_401
*741 FILLER_0_1004_41
*742 FILLER_0_1004_53
*743 FILLER_0_1004_65
*744 FILLER_0_1004_77
*745 FILLER_0_1004_83
*746 FILLER_0_1004_85
*747 FILLER_0_1004_97
*748 FILLER_0_1005_105
*749 FILLER_0_1005_111
*750 FILLER_0_1005_113
*751 FILLER_0_1005_125
*752 FILLER_0_1005_137
*753 FILLER_0_1005_149
*754 FILLER_0_1005_15
*755 FILLER_0_1005_161
*756 FILLER_0_1005_167
*757 FILLER_0_1005_169
*758 FILLER_0_1005_181
*759 FILLER_0_1005_193
*760 FILLER_0_1005_205
*761 FILLER_0_1005_217
*762 FILLER_0_1005_223
*763 FILLER_0_1005_225
*764 FILLER_0_1005_237
*765 FILLER_0_1005_249
*766 FILLER_0_1005_261
*767 FILLER_0_1005_27
*768 FILLER_0_1005_273
*769 FILLER_0_1005_279
*770 FILLER_0_1005_281
*771 FILLER_0_1005_293
*772 FILLER_0_1005_3
*773 FILLER_0_1005_305
*774 FILLER_0_1005_317
*775 FILLER_0_1005_329
*776 FILLER_0_1005_335
*777 FILLER_0_1005_337
*778 FILLER_0_1005_349
*779 FILLER_0_1005_361
*780 FILLER_0_1005_373
*781 FILLER_0_1005_385
*782 FILLER_0_1005_39
*783 FILLER_0_1005_391
*784 FILLER_0_1005_393
*785 FILLER_0_1005_405
*786 FILLER_0_1005_51
*787 FILLER_0_1005_55
*788 FILLER_0_1005_57
*789 FILLER_0_1005_69
*790 FILLER_0_1005_81
*791 FILLER_0_1005_93
*792 FILLER_0_1006_109
*793 FILLER_0_1006_121
*794 FILLER_0_1006_133
*795 FILLER_0_1006_139
*796 FILLER_0_1006_141
*797 FILLER_0_1006_15
*798 FILLER_0_1006_153
*799 FILLER_0_1006_165
*800 FILLER_0_1006_177
*801 FILLER_0_1006_189
*802 FILLER_0_1006_195
*803 FILLER_0_1006_197
*804 FILLER_0_1006_209
*805 FILLER_0_1006_221
*806 FILLER_0_1006_233
*807 FILLER_0_1006_245
*808 FILLER_0_1006_251
*809 FILLER_0_1006_253
*810 FILLER_0_1006_265
*811 FILLER_0_1006_27
*812 FILLER_0_1006_277
*813 FILLER_0_1006_289
*814 FILLER_0_1006_29
*815 FILLER_0_1006_3
*816 FILLER_0_1006_301
*817 FILLER_0_1006_307
*818 FILLER_0_1006_309
*819 FILLER_0_1006_321
*820 FILLER_0_1006_333
*821 FILLER_0_1006_345
*822 FILLER_0_1006_357
*823 FILLER_0_1006_363
*824 FILLER_0_1006_365
*825 FILLER_0_1006_377
*826 FILLER_0_1006_389
*827 FILLER_0_1006_401
*828 FILLER_0_1006_41
*829 FILLER_0_1006_53
*830 FILLER_0_1006_65
*831 FILLER_0_1006_77
*832 FILLER_0_1006_83
*833 FILLER_0_1006_85
*834 FILLER_0_1006_97
*835 FILLER_0_1007_105
*836 FILLER_0_1007_111
*837 FILLER_0_1007_113
*838 FILLER_0_1007_125
*839 FILLER_0_1007_137
*840 FILLER_0_1007_149
*841 FILLER_0_1007_15
*842 FILLER_0_1007_161
*843 FILLER_0_1007_167
*844 FILLER_0_1007_169
*845 FILLER_0_1007_181
*846 FILLER_0_1007_193
*847 FILLER_0_1007_205
*848 FILLER_0_1007_217
*849 FILLER_0_1007_223
*850 FILLER_0_1007_225
*851 FILLER_0_1007_237
*852 FILLER_0_1007_249
*853 FILLER_0_1007_261
*854 FILLER_0_1007_27
*855 FILLER_0_1007_273
*856 FILLER_0_1007_279
*857 FILLER_0_1007_281
*858 FILLER_0_1007_293
*859 FILLER_0_1007_3
*860 FILLER_0_1007_305
*861 FILLER_0_1007_317
*862 FILLER_0_1007_329
*863 FILLER_0_1007_335
*864 FILLER_0_1007_337
*865 FILLER_0_1007_349
*866 FILLER_0_1007_361
*867 FILLER_0_1007_373
*868 FILLER_0_1007_385
*869 FILLER_0_1007_39
*870 FILLER_0_1007_391
*871 FILLER_0_1007_393
*872 FILLER_0_1007_405
*873 FILLER_0_1007_51
*874 FILLER_0_1007_55
*875 FILLER_0_1007_57
*876 FILLER_0_1007_69
*877 FILLER_0_1007_81
*878 FILLER_0_1007_93
*879 FILLER_0_1008_109
*880 FILLER_0_1008_121
*881 FILLER_0_1008_133
*882 FILLER_0_1008_139
*883 FILLER_0_1008_141
*884 FILLER_0_1008_15
*885 FILLER_0_1008_153
*886 FILLER_0_1008_165
*887 FILLER_0_1008_177
*888 FILLER_0_1008_189
*889 FILLER_0_1008_195
*890 FILLER_0_1008_197
*891 FILLER_0_1008_209
*892 FILLER_0_1008_221
*893 FILLER_0_1008_233
*894 FILLER_0_1008_245
*895 FILLER_0_1008_251
*896 FILLER_0_1008_253
*897 FILLER_0_1008_265
*898 FILLER_0_1008_27
*899 FILLER_0_1008_277
*900 FILLER_0_1008_289
*901 FILLER_0_1008_29
*902 FILLER_0_1008_3
*903 FILLER_0_1008_301
*904 FILLER_0_1008_307
*905 FILLER_0_1008_309
*906 FILLER_0_1008_321
*907 FILLER_0_1008_333
*908 FILLER_0_1008_345
*909 FILLER_0_1008_357
*910 FILLER_0_1008_363
*911 FILLER_0_1008_365
*912 FILLER_0_1008_377
*913 FILLER_0_1008_389
*914 FILLER_0_1008_401
*915 FILLER_0_1008_41
*916 FILLER_0_1008_53
*917 FILLER_0_1008_65
*918 FILLER_0_1008_77
*919 FILLER_0_1008_83
*920 FILLER_0_1008_85
*921 FILLER_0_1008_97
*922 FILLER_0_1009_105
*923 FILLER_0_1009_111
*924 FILLER_0_1009_113
*925 FILLER_0_1009_125
*926 FILLER_0_1009_137
*927 FILLER_0_1009_149
*928 FILLER_0_1009_15
*929 FILLER_0_1009_161
*930 FILLER_0_1009_167
*931 FILLER_0_1009_169
*932 FILLER_0_1009_181
*933 FILLER_0_1009_193
*934 FILLER_0_1009_205
*935 FILLER_0_1009_217
*936 FILLER_0_1009_223
*937 FILLER_0_1009_225
*938 FILLER_0_1009_237
*939 FILLER_0_1009_249
*940 FILLER_0_1009_261
*941 FILLER_0_1009_27
*942 FILLER_0_1009_273
*943 FILLER_0_1009_279
*944 FILLER_0_1009_281
*945 FILLER_0_1009_293
*946 FILLER_0_1009_3
*947 FILLER_0_1009_305
*948 FILLER_0_1009_317
*949 FILLER_0_1009_329
*950 FILLER_0_1009_335
*951 FILLER_0_1009_337
*952 FILLER_0_1009_349
*953 FILLER_0_1009_361
*954 FILLER_0_1009_373
*955 FILLER_0_1009_385
*956 FILLER_0_1009_39
*957 FILLER_0_1009_391
*958 FILLER_0_1009_393
*959 FILLER_0_1009_405
*960 FILLER_0_1009_51
*961 FILLER_0_1009_55
*962 FILLER_0_1009_57
*963 FILLER_0_1009_69
*964 FILLER_0_1009_81
*965 FILLER_0_1009_93
*966 FILLER_0_100_109
*967 FILLER_0_100_121
*968 FILLER_0_100_133
*969 FILLER_0_100_139
*970 FILLER_0_100_141
*971 FILLER_0_100_15
*972 FILLER_0_100_153
*973 FILLER_0_100_165
*974 FILLER_0_100_177
*975 FILLER_0_100_189
*976 FILLER_0_100_195
*977 FILLER_0_100_197
*978 FILLER_0_100_209
*979 FILLER_0_100_221
*980 FILLER_0_100_233
*981 FILLER_0_100_245
*982 FILLER_0_100_251
*983 FILLER_0_100_253
*984 FILLER_0_100_265
*985 FILLER_0_100_27
*986 FILLER_0_100_277
*987 FILLER_0_100_289
*988 FILLER_0_100_29
*989 FILLER_0_100_3
*990 FILLER_0_100_301
*991 FILLER_0_100_307
*992 FILLER_0_100_309
*993 FILLER_0_100_321
*994 FILLER_0_100_333
*995 FILLER_0_100_345
*996 FILLER_0_100_357
*997 FILLER_0_100_363
*998 FILLER_0_100_365
*999 FILLER_0_100_377
*1000 FILLER_0_100_389
*1001 FILLER_0_100_401
*1002 FILLER_0_100_41
*1003 FILLER_0_100_53
*1004 FILLER_0_100_65
*1005 FILLER_0_100_77
*1006 FILLER_0_100_83
*1007 FILLER_0_100_85
*1008 FILLER_0_100_97
*1009 FILLER_0_1010_109
*1010 FILLER_0_1010_121
*1011 FILLER_0_1010_133
*1012 FILLER_0_1010_139
*1013 FILLER_0_1010_141
*1014 FILLER_0_1010_15
*1015 FILLER_0_1010_153
*1016 FILLER_0_1010_165
*1017 FILLER_0_1010_177
*1018 FILLER_0_1010_189
*1019 FILLER_0_1010_195
*1020 FILLER_0_1010_197
*1021 FILLER_0_1010_209
*1022 FILLER_0_1010_221
*1023 FILLER_0_1010_233
*1024 FILLER_0_1010_245
*1025 FILLER_0_1010_251
*1026 FILLER_0_1010_253
*1027 FILLER_0_1010_265
*1028 FILLER_0_1010_27
*1029 FILLER_0_1010_277
*1030 FILLER_0_1010_289
*1031 FILLER_0_1010_29
*1032 FILLER_0_1010_3
*1033 FILLER_0_1010_301
*1034 FILLER_0_1010_307
*1035 FILLER_0_1010_309
*1036 FILLER_0_1010_321
*1037 FILLER_0_1010_333
*1038 FILLER_0_1010_345
*1039 FILLER_0_1010_357
*1040 FILLER_0_1010_363
*1041 FILLER_0_1010_365
*1042 FILLER_0_1010_377
*1043 FILLER_0_1010_389
*1044 FILLER_0_1010_401
*1045 FILLER_0_1010_41
*1046 FILLER_0_1010_53
*1047 FILLER_0_1010_65
*1048 FILLER_0_1010_77
*1049 FILLER_0_1010_83
*1050 FILLER_0_1010_85
*1051 FILLER_0_1010_97
*1052 FILLER_0_1011_105
*1053 FILLER_0_1011_111
*1054 FILLER_0_1011_113
*1055 FILLER_0_1011_125
*1056 FILLER_0_1011_137
*1057 FILLER_0_1011_149
*1058 FILLER_0_1011_15
*1059 FILLER_0_1011_161
*1060 FILLER_0_1011_167
*1061 FILLER_0_1011_169
*1062 FILLER_0_1011_181
*1063 FILLER_0_1011_193
*1064 FILLER_0_1011_205
*1065 FILLER_0_1011_217
*1066 FILLER_0_1011_223
*1067 FILLER_0_1011_225
*1068 FILLER_0_1011_237
*1069 FILLER_0_1011_249
*1070 FILLER_0_1011_261
*1071 FILLER_0_1011_27
*1072 FILLER_0_1011_273
*1073 FILLER_0_1011_279
*1074 FILLER_0_1011_281
*1075 FILLER_0_1011_293
*1076 FILLER_0_1011_3
*1077 FILLER_0_1011_305
*1078 FILLER_0_1011_317
*1079 FILLER_0_1011_329
*1080 FILLER_0_1011_335
*1081 FILLER_0_1011_337
*1082 FILLER_0_1011_349
*1083 FILLER_0_1011_361
*1084 FILLER_0_1011_373
*1085 FILLER_0_1011_385
*1086 FILLER_0_1011_39
*1087 FILLER_0_1011_391
*1088 FILLER_0_1011_393
*1089 FILLER_0_1011_405
*1090 FILLER_0_1011_51
*1091 FILLER_0_1011_55
*1092 FILLER_0_1011_57
*1093 FILLER_0_1011_69
*1094 FILLER_0_1011_81
*1095 FILLER_0_1011_93
*1096 FILLER_0_1012_109
*1097 FILLER_0_1012_121
*1098 FILLER_0_1012_133
*1099 FILLER_0_1012_139
*1100 FILLER_0_1012_141
*1101 FILLER_0_1012_15
*1102 FILLER_0_1012_153
*1103 FILLER_0_1012_165
*1104 FILLER_0_1012_177
*1105 FILLER_0_1012_189
*1106 FILLER_0_1012_195
*1107 FILLER_0_1012_197
*1108 FILLER_0_1012_209
*1109 FILLER_0_1012_221
*1110 FILLER_0_1012_233
*1111 FILLER_0_1012_245
*1112 FILLER_0_1012_251
*1113 FILLER_0_1012_253
*1114 FILLER_0_1012_265
*1115 FILLER_0_1012_27
*1116 FILLER_0_1012_277
*1117 FILLER_0_1012_289
*1118 FILLER_0_1012_29
*1119 FILLER_0_1012_3
*1120 FILLER_0_1012_301
*1121 FILLER_0_1012_307
*1122 FILLER_0_1012_309
*1123 FILLER_0_1012_321
*1124 FILLER_0_1012_333
*1125 FILLER_0_1012_345
*1126 FILLER_0_1012_357
*1127 FILLER_0_1012_363
*1128 FILLER_0_1012_365
*1129 FILLER_0_1012_377
*1130 FILLER_0_1012_389
*1131 FILLER_0_1012_401
*1132 FILLER_0_1012_41
*1133 FILLER_0_1012_53
*1134 FILLER_0_1012_65
*1135 FILLER_0_1012_77
*1136 FILLER_0_1012_83
*1137 FILLER_0_1012_85
*1138 FILLER_0_1012_97
*1139 FILLER_0_1013_105
*1140 FILLER_0_1013_111
*1141 FILLER_0_1013_113
*1142 FILLER_0_1013_125
*1143 FILLER_0_1013_137
*1144 FILLER_0_1013_149
*1145 FILLER_0_1013_15
*1146 FILLER_0_1013_161
*1147 FILLER_0_1013_167
*1148 FILLER_0_1013_169
*1149 FILLER_0_1013_181
*1150 FILLER_0_1013_193
*1151 FILLER_0_1013_205
*1152 FILLER_0_1013_217
*1153 FILLER_0_1013_223
*1154 FILLER_0_1013_225
*1155 FILLER_0_1013_237
*1156 FILLER_0_1013_249
*1157 FILLER_0_1013_261
*1158 FILLER_0_1013_27
*1159 FILLER_0_1013_273
*1160 FILLER_0_1013_279
*1161 FILLER_0_1013_281
*1162 FILLER_0_1013_293
*1163 FILLER_0_1013_3
*1164 FILLER_0_1013_305
*1165 FILLER_0_1013_317
*1166 FILLER_0_1013_329
*1167 FILLER_0_1013_335
*1168 FILLER_0_1013_337
*1169 FILLER_0_1013_349
*1170 FILLER_0_1013_361
*1171 FILLER_0_1013_373
*1172 FILLER_0_1013_385
*1173 FILLER_0_1013_39
*1174 FILLER_0_1013_391
*1175 FILLER_0_1013_393
*1176 FILLER_0_1013_405
*1177 FILLER_0_1013_51
*1178 FILLER_0_1013_55
*1179 FILLER_0_1013_57
*1180 FILLER_0_1013_69
*1181 FILLER_0_1013_81
*1182 FILLER_0_1013_93
*1183 FILLER_0_1014_109
*1184 FILLER_0_1014_121
*1185 FILLER_0_1014_133
*1186 FILLER_0_1014_139
*1187 FILLER_0_1014_141
*1188 FILLER_0_1014_15
*1189 FILLER_0_1014_153
*1190 FILLER_0_1014_165
*1191 FILLER_0_1014_177
*1192 FILLER_0_1014_189
*1193 FILLER_0_1014_195
*1194 FILLER_0_1014_197
*1195 FILLER_0_1014_209
*1196 FILLER_0_1014_221
*1197 FILLER_0_1014_233
*1198 FILLER_0_1014_245
*1199 FILLER_0_1014_251
*1200 FILLER_0_1014_253
*1201 FILLER_0_1014_265
*1202 FILLER_0_1014_27
*1203 FILLER_0_1014_277
*1204 FILLER_0_1014_289
*1205 FILLER_0_1014_29
*1206 FILLER_0_1014_3
*1207 FILLER_0_1014_301
*1208 FILLER_0_1014_307
*1209 FILLER_0_1014_309
*1210 FILLER_0_1014_321
*1211 FILLER_0_1014_333
*1212 FILLER_0_1014_345
*1213 FILLER_0_1014_357
*1214 FILLER_0_1014_363
*1215 FILLER_0_1014_365
*1216 FILLER_0_1014_377
*1217 FILLER_0_1014_389
*1218 FILLER_0_1014_401
*1219 FILLER_0_1014_41
*1220 FILLER_0_1014_53
*1221 FILLER_0_1014_65
*1222 FILLER_0_1014_77
*1223 FILLER_0_1014_83
*1224 FILLER_0_1014_85
*1225 FILLER_0_1014_97
*1226 FILLER_0_1015_105
*1227 FILLER_0_1015_111
*1228 FILLER_0_1015_113
*1229 FILLER_0_1015_125
*1230 FILLER_0_1015_137
*1231 FILLER_0_1015_149
*1232 FILLER_0_1015_15
*1233 FILLER_0_1015_161
*1234 FILLER_0_1015_167
*1235 FILLER_0_1015_169
*1236 FILLER_0_1015_181
*1237 FILLER_0_1015_193
*1238 FILLER_0_1015_205
*1239 FILLER_0_1015_217
*1240 FILLER_0_1015_223
*1241 FILLER_0_1015_225
*1242 FILLER_0_1015_237
*1243 FILLER_0_1015_249
*1244 FILLER_0_1015_261
*1245 FILLER_0_1015_27
*1246 FILLER_0_1015_273
*1247 FILLER_0_1015_279
*1248 FILLER_0_1015_281
*1249 FILLER_0_1015_293
*1250 FILLER_0_1015_3
*1251 FILLER_0_1015_305
*1252 FILLER_0_1015_317
*1253 FILLER_0_1015_329
*1254 FILLER_0_1015_335
*1255 FILLER_0_1015_337
*1256 FILLER_0_1015_349
*1257 FILLER_0_1015_361
*1258 FILLER_0_1015_373
*1259 FILLER_0_1015_385
*1260 FILLER_0_1015_39
*1261 FILLER_0_1015_391
*1262 FILLER_0_1015_393
*1263 FILLER_0_1015_405
*1264 FILLER_0_1015_51
*1265 FILLER_0_1015_55
*1266 FILLER_0_1015_57
*1267 FILLER_0_1015_69
*1268 FILLER_0_1015_81
*1269 FILLER_0_1015_93
*1270 FILLER_0_1016_109
*1271 FILLER_0_1016_121
*1272 FILLER_0_1016_133
*1273 FILLER_0_1016_139
*1274 FILLER_0_1016_141
*1275 FILLER_0_1016_15
*1276 FILLER_0_1016_153
*1277 FILLER_0_1016_165
*1278 FILLER_0_1016_177
*1279 FILLER_0_1016_189
*1280 FILLER_0_1016_195
*1281 FILLER_0_1016_197
*1282 FILLER_0_1016_209
*1283 FILLER_0_1016_221
*1284 FILLER_0_1016_233
*1285 FILLER_0_1016_245
*1286 FILLER_0_1016_251
*1287 FILLER_0_1016_253
*1288 FILLER_0_1016_265
*1289 FILLER_0_1016_27
*1290 FILLER_0_1016_277
*1291 FILLER_0_1016_289
*1292 FILLER_0_1016_29
*1293 FILLER_0_1016_3
*1294 FILLER_0_1016_301
*1295 FILLER_0_1016_307
*1296 FILLER_0_1016_309
*1297 FILLER_0_1016_321
*1298 FILLER_0_1016_333
*1299 FILLER_0_1016_345
*1300 FILLER_0_1016_357
*1301 FILLER_0_1016_363
*1302 FILLER_0_1016_365
*1303 FILLER_0_1016_377
*1304 FILLER_0_1016_389
*1305 FILLER_0_1016_401
*1306 FILLER_0_1016_41
*1307 FILLER_0_1016_53
*1308 FILLER_0_1016_65
*1309 FILLER_0_1016_77
*1310 FILLER_0_1016_83
*1311 FILLER_0_1016_85
*1312 FILLER_0_1016_97
*1313 FILLER_0_1017_105
*1314 FILLER_0_1017_111
*1315 FILLER_0_1017_113
*1316 FILLER_0_1017_125
*1317 FILLER_0_1017_137
*1318 FILLER_0_1017_149
*1319 FILLER_0_1017_15
*1320 FILLER_0_1017_161
*1321 FILLER_0_1017_167
*1322 FILLER_0_1017_169
*1323 FILLER_0_1017_181
*1324 FILLER_0_1017_193
*1325 FILLER_0_1017_205
*1326 FILLER_0_1017_217
*1327 FILLER_0_1017_223
*1328 FILLER_0_1017_225
*1329 FILLER_0_1017_237
*1330 FILLER_0_1017_249
*1331 FILLER_0_1017_261
*1332 FILLER_0_1017_27
*1333 FILLER_0_1017_273
*1334 FILLER_0_1017_279
*1335 FILLER_0_1017_281
*1336 FILLER_0_1017_293
*1337 FILLER_0_1017_3
*1338 FILLER_0_1017_305
*1339 FILLER_0_1017_317
*1340 FILLER_0_1017_329
*1341 FILLER_0_1017_335
*1342 FILLER_0_1017_337
*1343 FILLER_0_1017_349
*1344 FILLER_0_1017_361
*1345 FILLER_0_1017_373
*1346 FILLER_0_1017_385
*1347 FILLER_0_1017_39
*1348 FILLER_0_1017_391
*1349 FILLER_0_1017_393
*1350 FILLER_0_1017_405
*1351 FILLER_0_1017_51
*1352 FILLER_0_1017_55
*1353 FILLER_0_1017_57
*1354 FILLER_0_1017_69
*1355 FILLER_0_1017_81
*1356 FILLER_0_1017_93
*1357 FILLER_0_1018_109
*1358 FILLER_0_1018_121
*1359 FILLER_0_1018_133
*1360 FILLER_0_1018_139
*1361 FILLER_0_1018_141
*1362 FILLER_0_1018_15
*1363 FILLER_0_1018_153
*1364 FILLER_0_1018_165
*1365 FILLER_0_1018_177
*1366 FILLER_0_1018_189
*1367 FILLER_0_1018_195
*1368 FILLER_0_1018_197
*1369 FILLER_0_1018_209
*1370 FILLER_0_1018_221
*1371 FILLER_0_1018_233
*1372 FILLER_0_1018_245
*1373 FILLER_0_1018_251
*1374 FILLER_0_1018_253
*1375 FILLER_0_1018_265
*1376 FILLER_0_1018_27
*1377 FILLER_0_1018_277
*1378 FILLER_0_1018_289
*1379 FILLER_0_1018_29
*1380 FILLER_0_1018_3
*1381 FILLER_0_1018_301
*1382 FILLER_0_1018_307
*1383 FILLER_0_1018_309
*1384 FILLER_0_1018_321
*1385 FILLER_0_1018_333
*1386 FILLER_0_1018_345
*1387 FILLER_0_1018_357
*1388 FILLER_0_1018_363
*1389 FILLER_0_1018_365
*1390 FILLER_0_1018_377
*1391 FILLER_0_1018_389
*1392 FILLER_0_1018_401
*1393 FILLER_0_1018_41
*1394 FILLER_0_1018_53
*1395 FILLER_0_1018_65
*1396 FILLER_0_1018_77
*1397 FILLER_0_1018_83
*1398 FILLER_0_1018_85
*1399 FILLER_0_1018_97
*1400 FILLER_0_1019_105
*1401 FILLER_0_1019_111
*1402 FILLER_0_1019_113
*1403 FILLER_0_1019_125
*1404 FILLER_0_1019_137
*1405 FILLER_0_1019_149
*1406 FILLER_0_1019_15
*1407 FILLER_0_1019_161
*1408 FILLER_0_1019_167
*1409 FILLER_0_1019_169
*1410 FILLER_0_1019_181
*1411 FILLER_0_1019_193
*1412 FILLER_0_1019_205
*1413 FILLER_0_1019_217
*1414 FILLER_0_1019_223
*1415 FILLER_0_1019_225
*1416 FILLER_0_1019_237
*1417 FILLER_0_1019_249
*1418 FILLER_0_1019_261
*1419 FILLER_0_1019_27
*1420 FILLER_0_1019_273
*1421 FILLER_0_1019_279
*1422 FILLER_0_1019_281
*1423 FILLER_0_1019_293
*1424 FILLER_0_1019_3
*1425 FILLER_0_1019_305
*1426 FILLER_0_1019_317
*1427 FILLER_0_1019_329
*1428 FILLER_0_1019_335
*1429 FILLER_0_1019_337
*1430 FILLER_0_1019_349
*1431 FILLER_0_1019_361
*1432 FILLER_0_1019_373
*1433 FILLER_0_1019_385
*1434 FILLER_0_1019_39
*1435 FILLER_0_1019_391
*1436 FILLER_0_1019_393
*1437 FILLER_0_1019_405
*1438 FILLER_0_1019_51
*1439 FILLER_0_1019_55
*1440 FILLER_0_1019_57
*1441 FILLER_0_1019_69
*1442 FILLER_0_1019_81
*1443 FILLER_0_1019_93
*1444 FILLER_0_101_105
*1445 FILLER_0_101_111
*1446 FILLER_0_101_113
*1447 FILLER_0_101_125
*1448 FILLER_0_101_137
*1449 FILLER_0_101_149
*1450 FILLER_0_101_15
*1451 FILLER_0_101_161
*1452 FILLER_0_101_167
*1453 FILLER_0_101_169
*1454 FILLER_0_101_181
*1455 FILLER_0_101_193
*1456 FILLER_0_101_205
*1457 FILLER_0_101_217
*1458 FILLER_0_101_223
*1459 FILLER_0_101_225
*1460 FILLER_0_101_237
*1461 FILLER_0_101_249