*SPEF "ieee 1481-1999"
*DESIGN "user_proj_example1"
*DATE "11:11:11 Fri 11 11, 1111"
*VENDOR "OpenRCX"
*PROGRAM "Parallel Extraction"
*VERSION "1.0"
*DESIGN_FLOW "NAME_SCOPE LOCAL" "PIN_CAP NONE"
*DIVIDER /
*DELIMITER :
*BUS_DELIMITER []
*T_UNIT 1 NS
*C_UNIT 1 PF
*R_UNIT 1 OHM
*L_UNIT 1 HENRY

*NAME_MAP
*1 io_in[0]
*2 io_in[10]
*3 io_in[11]
*4 io_in[1]
*5 io_in[2]
*6 io_in[3]
*7 io_in[4]
*8 io_in[5]
*9 io_in[6]
*10 io_in[7]
*11 io_in[8]
*12 io_in[9]
*13 net25
*14 net35
*15 net36
*16 net26
*17 net27
*18 net28
*19 net29
*20 net30
*21 net31
*22 net32
*23 net33
*24 net34
*25 io_out[0]
*26 io_out[10]
*27 net37
*28 io_out[1]
*29 io_out[2]
*30 io_out[3]
*31 io_out[4]
*32 io_out[5]
*33 io_out[6]
*34 io_out[7]
*35 io_out[8]
*36 io_out[9]
*39 wb_clk_i
*40 wb_rst_i
*41 Clock_part1\.dig_cnt\[0\]
*42 Clock_part1\.dig_cnt\[1\]
*43 Clock_part1\.min_ones\[0\]
*44 Clock_part1\.min_ones\[1\]
*45 Clock_part1\.min_ones\[2\]
*46 Clock_part1\.min_ones\[3\]
*47 Clock_part1\.min_tens\[0\]
*48 Clock_part1\.min_tens\[1\]
*49 Clock_part1\.min_tens\[2\]
*50 Clock_part1\.min_tens\[3\]
*51 Clock_part1\.scan
*52 Clock_part1\.scan_div\[0\]
*53 Clock_part1\.scan_div\[10\]
*54 Clock_part1\.scan_div\[11\]
*55 Clock_part1\.scan_div\[12\]
*56 Clock_part1\.scan_div\[13\]
*57 Clock_part1\.scan_div\[14\]
*58 Clock_part1\.scan_div\[15\]
*59 Clock_part1\.scan_div\[16\]
*60 Clock_part1\.scan_div\[17\]
*61 Clock_part1\.scan_div\[18\]
*62 Clock_part1\.scan_div\[19\]
*63 Clock_part1\.scan_div\[1\]
*64 Clock_part1\.scan_div\[20\]
*65 Clock_part1\.scan_div\[21\]
*66 Clock_part1\.scan_div\[22\]
*67 Clock_part1\.scan_div\[23\]
*68 Clock_part1\.scan_div\[24\]
*69 Clock_part1\.scan_div\[25\]
*70 Clock_part1\.scan_div\[26\]
*71 Clock_part1\.scan_div\[27\]
*72 Clock_part1\.scan_div\[28\]
*73 Clock_part1\.scan_div\[29\]
*74 Clock_part1\.scan_div\[2\]
*75 Clock_part1\.scan_div\[30\]
*76 Clock_part1\.scan_div\[31\]
*77 Clock_part1\.scan_div\[3\]
*78 Clock_part1\.scan_div\[4\]
*79 Clock_part1\.scan_div\[5\]
*80 Clock_part1\.scan_div\[6\]
*81 Clock_part1\.scan_div\[7\]
*82 Clock_part1\.scan_div\[8\]
*83 Clock_part1\.scan_div\[9\]
*84 Clock_part1\.sec
*85 Clock_part1\.sec_div\[0\]
*86 Clock_part1\.sec_div\[10\]
*87 Clock_part1\.sec_div\[11\]
*88 Clock_part1\.sec_div\[12\]
*89 Clock_part1\.sec_div\[13\]
*90 Clock_part1\.sec_div\[14\]
*91 Clock_part1\.sec_div\[15\]
*92 Clock_part1\.sec_div\[16\]
*93 Clock_part1\.sec_div\[17\]
*94 Clock_part1\.sec_div\[18\]
*95 Clock_part1\.sec_div\[19\]
*96 Clock_part1\.sec_div\[1\]
*97 Clock_part1\.sec_div\[20\]
*98 Clock_part1\.sec_div\[21\]
*99 Clock_part1\.sec_div\[22\]
*100 Clock_part1\.sec_div\[23\]
*101 Clock_part1\.sec_div\[24\]
*102 Clock_part1\.sec_div\[25\]
*103 Clock_part1\.sec_div\[26\]
*104 Clock_part1\.sec_div\[27\]
*105 Clock_part1\.sec_div\[28\]
*106 Clock_part1\.sec_div\[29\]
*107 Clock_part1\.sec_div\[2\]
*108 Clock_part1\.sec_div\[30\]
*109 Clock_part1\.sec_div\[31\]
*110 Clock_part1\.sec_div\[3\]
*111 Clock_part1\.sec_div\[4\]
*112 Clock_part1\.sec_div\[5\]
*113 Clock_part1\.sec_div\[6\]
*114 Clock_part1\.sec_div\[7\]
*115 Clock_part1\.sec_div\[8\]
*116 Clock_part1\.sec_div\[9\]
*117 Clock_part1\.sec_ones\[0\]
*118 Clock_part1\.sec_ones\[1\]
*119 Clock_part1\.sec_ones\[2\]
*120 Clock_part1\.sec_ones\[3\]
*121 Clock_part1\.sec_tens\[0\]
*122 Clock_part1\.sec_tens\[1\]
*123 Clock_part1\.sec_tens\[2\]
*124 Clock_part1\.sec_tens\[3\]
*125 _000_
*126 _001_
*127 _002_
*128 _003_
*129 _004_
*130 _005_
*131 _006_
*132 _007_
*133 _008_
*134 _009_
*135 _010_
*136 _011_
*137 _012_
*138 _013_
*139 _014_
*140 _015_
*141 _016_
*142 _017_
*143 _018_
*144 _019_
*145 _020_
*146 _021_
*147 _022_
*148 _023_
*149 _024_
*150 _025_
*151 _026_
*152 _027_
*153 _028_
*154 _029_
*155 _030_
*156 _031_
*157 _032_
*158 _033_
*159 _034_
*160 _035_
*161 _036_
*162 _037_
*163 _038_
*164 _039_
*165 _040_
*166 _041_
*167 _042_
*168 _043_
*169 _044_
*170 _045_
*171 _046_
*172 _047_
*173 _048_
*174 _049_
*175 _050_
*176 _051_
*177 _052_
*178 _053_
*179 _054_
*180 _055_
*181 _056_
*182 _057_
*183 _058_
*184 _059_
*185 _060_
*186 _061_
*187 _062_
*188 _063_
*189 _064_
*190 _065_
*191 _066_
*192 _067_
*193 _068_
*194 _069_
*195 _070_
*196 _071_
*197 _072_
*198 _073_
*199 _074_
*200 _075_
*201 _076_
*202 _077_
*203 _078_
*204 _079_
*205 _080_
*206 _081_
*207 _082_
*208 _083_
*209 _084_
*210 _085_
*211 _086_
*212 _087_
*213 _088_
*214 _089_
*215 _090_
*216 _091_
*217 _092_
*218 _093_
*219 _094_
*220 _095_
*221 _096_
*222 _097_
*223 _098_
*224 _099_
*225 _100_
*226 _101_
*227 _102_
*228 _103_
*229 _104_
*230 _105_
*231 _106_
*232 _107_
*233 _108_
*234 _109_
*235 _110_
*236 _111_
*237 _112_
*238 _113_
*239 _114_
*240 _115_
*241 _116_
*242 _117_
*243 _118_
*244 _119_
*245 _120_
*246 _121_
*247 _122_
*248 _123_
*249 _124_
*250 _125_
*251 _126_
*252 _127_
*253 _128_
*254 _129_
*255 _130_
*256 _131_
*257 _132_
*258 _133_
*259 _134_
*260 _135_
*261 _136_
*262 _137_
*263 _138_
*264 _139_
*265 _140_
*266 _141_
*267 _142_
*268 _143_
*269 _144_
*270 _145_
*271 _146_
*272 _147_
*273 _148_
*274 _149_
*275 _150_
*276 _151_
*277 _152_
*278 _153_
*279 _154_
*280 _155_
*281 _156_
*282 _157_
*283 _158_
*284 _159_
*285 _160_
*286 _161_
*287 _162_
*288 _163_
*289 _164_
*290 _165_
*291 _166_
*292 _167_
*293 _168_
*294 _169_
*295 _170_
*296 _171_
*297 _172_
*298 _173_
*299 _174_
*300 _175_
*301 _176_
*302 _177_
*303 _178_
*304 _179_
*305 _180_
*306 _181_
*307 _182_
*308 _183_
*309 _184_
*310 _185_
*311 _186_
*312 _187_
*313 _188_
*314 _189_
*315 _190_
*316 _191_
*317 _192_
*318 _193_
*319 _194_
*320 _195_
*321 _196_
*322 _197_
*323 _198_
*324 _199_
*325 _200_
*326 _201_
*327 _202_
*328 _203_
*329 _204_
*330 _205_
*331 _206_
*332 _207_
*333 _208_
*334 _209_
*335 _210_
*336 _211_
*337 _212_
*338 _213_
*339 _214_
*340 _215_
*341 _216_
*342 _217_
*343 _218_
*344 _219_
*345 _220_
*346 _221_
*347 _222_
*348 _223_
*349 _224_
*350 _225_
*351 _226_
*352 _227_
*353 _228_
*354 _229_
*355 _230_
*356 _231_
*357 _232_
*358 _233_
*359 _234_
*360 _235_
*361 _236_
*362 _237_
*363 _238_
*364 _239_
*365 _240_
*366 _241_
*367 _242_
*368 _243_
*369 _244_
*370 _245_
*371 _246_
*372 _247_
*373 _248_
*374 _249_
*375 _250_
*376 _251_
*377 _252_
*378 _253_
*379 _254_
*380 _255_
*381 _256_
*382 _257_
*383 _258_
*384 _259_
*385 _260_
*386 _261_
*387 _262_
*388 _263_
*389 _264_
*390 _265_
*391 _266_
*392 _267_
*393 _268_
*394 _269_
*395 _270_
*396 _271_
*397 _272_
*398 _273_
*399 _274_
*400 _275_
*401 _276_
*402 _277_
*403 _278_
*404 _279_
*405 _280_
*406 _281_
*407 _282_
*408 _283_
*409 _284_
*410 _285_
*411 _286_
*412 _287_
*413 _288_
*414 _289_
*415 _290_
*416 _291_
*417 _292_
*418 _293_
*419 _294_
*420 _295_
*421 _296_
*422 _297_
*423 _298_
*424 _299_
*425 _300_
*426 _301_
*427 _302_
*428 _303_
*429 _304_
*430 _305_
*431 _306_
*432 _307_
*433 _308_
*434 _309_
*435 _310_
*436 _311_
*437 _312_
*438 _313_
*439 _314_
*440 _315_
*441 _316_
*442 _317_
*443 _318_
*444 _319_
*445 _320_
*446 _321_
*447 _322_
*448 _323_
*449 _324_
*450 clknet_0_wb_clk_i
*451 clknet_3_0__leaf_wb_clk_i
*452 clknet_3_1__leaf_wb_clk_i
*453 clknet_3_2__leaf_wb_clk_i
*454 clknet_3_3__leaf_wb_clk_i
*455 clknet_3_4__leaf_wb_clk_i
*456 clknet_3_5__leaf_wb_clk_i
*457 clknet_3_6__leaf_wb_clk_i
*458 clknet_3_7__leaf_wb_clk_i
*459 net1
*460 net10
*461 net11
*462 net12
*463 net13
*464 net14
*465 net15
*466 net16
*467 net17
*468 net18
*469 net19
*470 net2
*471 net20
*472 net21
*473 net22
*474 net23
*475 net24
*476 net3
*477 net4
*478 net5
*479 net6
*480 net7
*481 net8
*482 net9
*483 ANTENNA_1
*484 ANTENNA_2
*485 ANTENNA_3
*486 ANTENNA_4
*487 ANTENNA_5
*488 ANTENNA_6
*489 FILLER_0_109
*490 FILLER_0_113
*491 FILLER_0_125
*492 FILLER_0_137
*493 FILLER_0_141
*494 FILLER_0_15
*495 FILLER_0_153
*496 FILLER_0_165
*497 FILLER_0_169
*498 FILLER_0_181
*499 FILLER_0_193
*500 FILLER_0_197
*501 FILLER_0_209
*502 FILLER_0_221
*503 FILLER_0_225
*504 FILLER_0_237
*505 FILLER_0_249
*506 FILLER_0_253
*507 FILLER_0_265
*508 FILLER_0_27
*509 FILLER_0_277
*510 FILLER_0_281
*511 FILLER_0_29
*512 FILLER_0_293
*513 FILLER_0_3
*514 FILLER_0_305
*515 FILLER_0_309
*516 FILLER_0_313
*517 FILLER_0_317
*518 FILLER_0_329
*519 FILLER_0_335
*520 FILLER_0_337
*521 FILLER_0_349
*522 FILLER_0_361
*523 FILLER_0_365
*524 FILLER_0_377
*525 FILLER_0_389
*526 FILLER_0_393
*527 FILLER_0_405
*528 FILLER_0_41
*529 FILLER_0_53
*530 FILLER_0_57
*531 FILLER_0_69
*532 FILLER_0_81
*533 FILLER_0_85
*534 FILLER_0_97
*535 FILLER_1000_109
*536 FILLER_1000_121
*537 FILLER_1000_133
*538 FILLER_1000_139
*539 FILLER_1000_141
*540 FILLER_1000_15
*541 FILLER_1000_153
*542 FILLER_1000_165
*543 FILLER_1000_177
*544 FILLER_1000_189
*545 FILLER_1000_195
*546 FILLER_1000_197
*547 FILLER_1000_209
*548 FILLER_1000_221
*549 FILLER_1000_233
*550 FILLER_1000_245
*551 FILLER_1000_251
*552 FILLER_1000_253
*553 FILLER_1000_265
*554 FILLER_1000_27
*555 FILLER_1000_277
*556 FILLER_1000_289
*557 FILLER_1000_29
*558 FILLER_1000_3
*559 FILLER_1000_301
*560 FILLER_1000_307
*561 FILLER_1000_309
*562 FILLER_1000_321
*563 FILLER_1000_333
*564 FILLER_1000_345
*565 FILLER_1000_357
*566 FILLER_1000_363
*567 FILLER_1000_365
*568 FILLER_1000_377
*569 FILLER_1000_389
*570 FILLER_1000_401
*571 FILLER_1000_41
*572 FILLER_1000_53
*573 FILLER_1000_65
*574 FILLER_1000_77
*575 FILLER_1000_83
*576 FILLER_1000_85
*577 FILLER_1000_97
*578 FILLER_1001_105
*579 FILLER_1001_111
*580 FILLER_1001_113
*581 FILLER_1001_125
*582 FILLER_1001_137
*583 FILLER_1001_149
*584 FILLER_1001_15
*585 FILLER_1001_161
*586 FILLER_1001_167
*587 FILLER_1001_169
*588 FILLER_1001_181
*589 FILLER_1001_193
*590 FILLER_1001_205
*591 FILLER_1001_217
*592 FILLER_1001_223
*593 FILLER_1001_225
*594 FILLER_1001_237
*595 FILLER_1001_249
*596 FILLER_1001_261
*597 FILLER_1001_27
*598 FILLER_1001_273
*599 FILLER_1001_279
*600 FILLER_1001_281
*601 FILLER_1001_293
*602 FILLER_1001_3
*603 FILLER_1001_305
*604 FILLER_1001_317
*605 FILLER_1001_329
*606 FILLER_1001_335
*607 FILLER_1001_337
*608 FILLER_1001_349
*609 FILLER_1001_361
*610 FILLER_1001_373
*611 FILLER_1001_385
*612 FILLER_1001_39
*613 FILLER_1001_391
*614 FILLER_1001_393
*615 FILLER_1001_405
*616 FILLER_1001_51
*617 FILLER_1001_55
*618 FILLER_1001_57
*619 FILLER_1001_69
*620 FILLER_1001_81
*621 FILLER_1001_93
*622 FILLER_1002_109
*623 FILLER_1002_121
*624 FILLER_1002_133
*625 FILLER_1002_139
*626 FILLER_1002_141
*627 FILLER_1002_15
*628 FILLER_1002_153
*629 FILLER_1002_165
*630 FILLER_1002_177
*631 FILLER_1002_189
*632 FILLER_1002_195
*633 FILLER_1002_197
*634 FILLER_1002_209
*635 FILLER_1002_221
*636 FILLER_1002_233
*637 FILLER_1002_245
*638 FILLER_1002_251
*639 FILLER_1002_253
*640 FILLER_1002_265
*641 FILLER_1002_27
*642 FILLER_1002_277
*643 FILLER_1002_289
*644 FILLER_1002_29
*645 FILLER_1002_3
*646 FILLER_1002_301
*647 FILLER_1002_307
*648 FILLER_1002_309
*649 FILLER_1002_321
*650 FILLER_1002_333
*651 FILLER_1002_345
*652 FILLER_1002_357
*653 FILLER_1002_363
*654 FILLER_1002_365
*655 FILLER_1002_377
*656 FILLER_1002_389
*657 FILLER_1002_401
*658 FILLER_1002_41
*659 FILLER_1002_53
*660 FILLER_1002_65
*661 FILLER_1002_77
*662 FILLER_1002_83
*663 FILLER_1002_85
*664 FILLER_1002_97
*665 FILLER_1003_105
*666 FILLER_1003_111
*667 FILLER_1003_113
*668 FILLER_1003_125
*669 FILLER_1003_137
*670 FILLER_1003_149
*671 FILLER_1003_15
*672 FILLER_1003_161
*673 FILLER_1003_167
*674 FILLER_1003_169
*675 FILLER_1003_181
*676 FILLER_1003_193
*677 FILLER_1003_205
*678 FILLER_1003_217
*679 FILLER_1003_223
*680 FILLER_1003_225
*681 FILLER_1003_237
*682 FILLER_1003_249
*683 FILLER_1003_261
*684 FILLER_1003_27
*685 FILLER_1003_273
*686 FILLER_1003_279
*687 FILLER_1003_281
*688 FILLER_1003_293
*689 FILLER_1003_3
*690 FILLER_1003_305
*691 FILLER_1003_317
*692 FILLER_1003_329
*693 FILLER_1003_335
*694 FILLER_1003_337
*695 FILLER_1003_349
*696 FILLER_1003_361
*697 FILLER_1003_373
*698 FILLER_1003_385
*699 FILLER_1003_39
*700 FILLER_1003_391
*701 FILLER_1003_393
*702 FILLER_1003_405
*703 FILLER_1003_51
*704 FILLER_1003_55
*705 FILLER_1003_57
*706 FILLER_1003_69
*707 FILLER_1003_81
*708 FILLER_1003_93
*709 FILLER_1004_109
*710 FILLER_1004_121
*711 FILLER_1004_133
*712 FILLER_1004_139
*713 FILLER_1004_141
*714 FILLER_1004_15
*715 FILLER_1004_153
*716 FILLER_1004_165
*717 FILLER_1004_177
*718 FILLER_1004_189
*719 FILLER_1004_195
*720 FILLER_1004_197
*721 FILLER_1004_209
*722 FILLER_1004_221
*723 FILLER_1004_233
*724 FILLER_1004_245
*725 FILLER_1004_251
*726 FILLER_1004_253
*727 FILLER_1004_265
*728 FILLER_1004_27
*729 FILLER_1004_277
*730 FILLER_1004_289
*731 FILLER_1004_29
*732 FILLER_1004_3
*733 FILLER_1004_301
*734 FILLER_1004_307
*735 FILLER_1004_309
*736 FILLER_1004_321
*737 FILLER_1004_333
*738 FILLER_1004_345
*739 FILLER_1004_357
*740 FILLER_1004_363
*741 FILLER_1004_365
*742 FILLER_1004_377
*743 FILLER_1004_389
*744 FILLER_1004_401
*745 FILLER_1004_41
*746 FILLER_1004_53
*747 FILLER_1004_65
*748 FILLER_1004_77
*749 FILLER_1004_83
*750 FILLER_1004_85
*751 FILLER_1004_97
*752 FILLER_1005_105
*753 FILLER_1005_111
*754 FILLER_1005_113
*755 FILLER_1005_125
*756 FILLER_1005_137
*757 FILLER_1005_149
*758 FILLER_1005_15
*759 FILLER_1005_161
*760 FILLER_1005_167
*761 FILLER_1005_169
*762 FILLER_1005_181
*763 FILLER_1005_193
*764 FILLER_1005_205
*765 FILLER_1005_217
*766 FILLER_1005_223
*767 FILLER_1005_225
*768 FILLER_1005_237
*769 FILLER_1005_249
*770 FILLER_1005_261
*771 FILLER_1005_27
*772 FILLER_1005_273
*773 FILLER_1005_279
*774 FILLER_1005_281
*775 FILLER_1005_293
*776 FILLER_1005_3
*777 FILLER_1005_305
*778 FILLER_1005_317
*779 FILLER_1005_329
*780 FILLER_1005_335
*781 FILLER_1005_337
*782 FILLER_1005_349
*783 FILLER_1005_361
*784 FILLER_1005_373
*785 FILLER_1005_385
*786 FILLER_1005_39
*787 FILLER_1005_391
*788 FILLER_1005_393
*789 FILLER_1005_405
*790 FILLER_1005_51
*791 FILLER_1005_55
*792 FILLER_1005_57
*793 FILLER_1005_69
*794 FILLER_1005_81
*795 FILLER_1005_93
*796 FILLER_1006_109
*797 FILLER_1006_121
*798 FILLER_1006_133
*799 FILLER_1006_139
*800 FILLER_1006_141
*801 FILLER_1006_15
*802 FILLER_1006_153
*803 FILLER_1006_165
*804 FILLER_1006_177
*805 FILLER_1006_189
*806 FILLER_1006_195
*807 FILLER_1006_197
*808 FILLER_1006_209
*809 FILLER_1006_221
*810 FILLER_1006_233
*811 FILLER_1006_245
*812 FILLER_1006_251
*813 FILLER_1006_253
*814 FILLER_1006_265
*815 FILLER_1006_27
*816 FILLER_1006_277
*817 FILLER_1006_289
*818 FILLER_1006_29
*819 FILLER_1006_3
*820 FILLER_1006_301
*821 FILLER_1006_307
*822 FILLER_1006_309
*823 FILLER_1006_321
*824 FILLER_1006_333
*825 FILLER_1006_345
*826 FILLER_1006_357
*827 FILLER_1006_363
*828 FILLER_1006_365
*829 FILLER_1006_377
*830 FILLER_1006_389
*831 FILLER_1006_401
*832 FILLER_1006_41
*833 FILLER_1006_53
*834 FILLER_1006_65
*835 FILLER_1006_77
*836 FILLER_1006_83
*837 FILLER_1006_85
*838 FILLER_1006_97
*839 FILLER_1007_105
*840 FILLER_1007_111
*841 FILLER_1007_113
*842 FILLER_1007_125
*843 FILLER_1007_137
*844 FILLER_1007_149
*845 FILLER_1007_15
*846 FILLER_1007_161
*847 FILLER_1007_167
*848 FILLER_1007_169
*849 FILLER_1007_181
*850 FILLER_1007_193
*851 FILLER_1007_205
*852 FILLER_1007_217
*853 FILLER_1007_223
*854 FILLER_1007_225
*855 FILLER_1007_237
*856 FILLER_1007_249
*857 FILLER_1007_261
*858 FILLER_1007_27
*859 FILLER_1007_273
*860 FILLER_1007_279
*861 FILLER_1007_281
*862 FILLER_1007_293
*863 FILLER_1007_3
*864 FILLER_1007_305
*865 FILLER_1007_317
*866 FILLER_1007_329
*867 FILLER_1007_335
*868 FILLER_1007_337
*869 FILLER_1007_349
*870 FILLER_1007_361
*871 FILLER_1007_373
*872 FILLER_1007_385
*873 FILLER_1007_39
*874 FILLER_1007_391
*875 FILLER_1007_393
*876 FILLER_1007_405
*877 FILLER_1007_51
*878 FILLER_1007_55
*879 FILLER_1007_57
*880 FILLER_1007_69
*881 FILLER_1007_81
*882 FILLER_1007_93
*883 FILLER_1008_109
*884 FILLER_1008_121
*885 FILLER_1008_133
*886 FILLER_1008_139
*887 FILLER_1008_141
*888 FILLER_1008_15
*889 FILLER_1008_153
*890 FILLER_1008_165
*891 FILLER_1008_177
*892 FILLER_1008_189
*893 FILLER_1008_195
*894 FILLER_1008_197
*895 FILLER_1008_209
*896 FILLER_1008_221
*897 FILLER_1008_233
*898 FILLER_1008_245
*899 FILLER_1008_251
*900 FILLER_1008_253
*901 FILLER_1008_265
*902 FILLER_1008_27
*903 FILLER_1008_277
*904 FILLER_1008_289
*905 FILLER_1008_29
*906 FILLER_1008_3
*907 FILLER_1008_301
*908 FILLER_1008_307
*909 FILLER_1008_309
*910 FILLER_1008_321
*911 FILLER_1008_333
*912 FILLER_1008_345
*913 FILLER_1008_357
*914 FILLER_1008_363
*915 FILLER_1008_365
*916 FILLER_1008_377
*917 FILLER_1008_389
*918 FILLER_1008_401
*919 FILLER_1008_41
*920 FILLER_1008_53
*921 FILLER_1008_65
*922 FILLER_1008_77
*923 FILLER_1008_83
*924 FILLER_1008_85
*925 FILLER_1008_97
*926 FILLER_1009_105
*927 FILLER_1009_111
*928 FILLER_1009_113
*929 FILLER_1009_125
*930 FILLER_1009_137
*931 FILLER_1009_149
*932 FILLER_1009_15
*933 FILLER_1009_161
*934 FILLER_1009_167
*935 FILLER_1009_169
*936 FILLER_1009_181
*937 FILLER_1009_193
*938 FILLER_1009_205
*939 FILLER_1009_217
*940 FILLER_1009_223
*941 FILLER_1009_225
*942 FILLER_1009_237
*943 FILLER_1009_249
*944 FILLER_1009_261
*945 FILLER_1009_27
*946 FILLER_1009_273
*947 FILLER_1009_279
*948 FILLER_1009_281
*949 FILLER_1009_293
*950 FILLER_1009_3
*951 FILLER_1009_305
*952 FILLER_1009_317
*953 FILLER_1009_329
*954 FILLER_1009_335
*955 FILLER_1009_337
*956 FILLER_1009_349
*957 FILLER_1009_361
*958 FILLER_1009_373
*959 FILLER_1009_385
*960 FILLER_1009_39
*961 FILLER_1009_391
*962 FILLER_1009_393
*963 FILLER_1009_405
*964 FILLER_1009_51
*965 FILLER_1009_55
*966 FILLER_1009_57
*967 FILLER_1009_69
*968 FILLER_1009_81
*969 FILLER_1009_93
*970 FILLER_100_109
*971 FILLER_100_121
*972 FILLER_100_133
*973 FILLER_100_139
*974 FILLER_100_141
*975 FILLER_100_15
*976 FILLER_100_153
*977 FILLER_100_165
*978 FILLER_100_177
*979 FILLER_100_189
*980 FILLER_100_195
*981 FILLER_100_197
*982 FILLER_100_209
*983 FILLER_100_230
*984 FILLER_100_239
*985 FILLER_100_251
*986 FILLER_100_253
*987 FILLER_100_265
*988 FILLER_100_27
*989 FILLER_100_277
*990 FILLER_100_289
*991 FILLER_100_29
*992 FILLER_100_3
*993 FILLER_100_301
*994 FILLER_100_307
*995 FILLER_100_309
*996 FILLER_100_321
*997 FILLER_100_333
*998 FILLER_100_345
*999 FILLER_100_357
*1000 FILLER_100_363
*1001 FILLER_100_365
*1002 FILLER_100_377
*1003 FILLER_100_389
*1004 FILLER_100_401
*1005 FILLER_100_41
*1006 FILLER_100_53
*1007 FILLER_100_65
*1008 FILLER_100_77
*1009 FILLER_100_83
*1010 FILLER_100_85
*1011 FILLER_100_97
*1012 FILLER_1010_109
*1013 FILLER_1010_121
*1014 FILLER_1010_133
*1015 FILLER_1010_139
*1016 FILLER_1010_141
*1017 FILLER_1010_15
*1018 FILLER_1010_153
*1019 FILLER_1010_165
*1020 FILLER_1010_177
*1021 FILLER_1010_189
*1022 FILLER_1010_195
*1023 FILLER_1010_197
*1024 FILLER_1010_209
*1025 FILLER_1010_221
*1026 FILLER_1010_233
*1027 FILLER_1010_245
*1028 FILLER_1010_251
*1029 FILLER_1010_253
*1030 FILLER_1010_265
*1031 FILLER_1010_27
*1032 FILLER_1010_277
*1033 FILLER_1010_289
*1034 FILLER_1010_29
*1035 FILLER_1010_3
*1036 FILLER_1010_301
*1037 FILLER_1010_307
*1038 FILLER_1010_309
*1039 FILLER_1010_321
*1040 FILLER_1010_333
*1041 FILLER_1010_345
*1042 FILLER_1010_357
*1043 FILLER_1010_363
*1044 FILLER_1010_365
*1045 FILLER_1010_377
*1046 FILLER_1010_389
*1047 FILLER_1010_401
*1048 FILLER_1010_41
*1049 FILLER_1010_53
*1050 FILLER_1010_65
*1051 FILLER_1010_77
*1052 FILLER_1010_83
*1053 FILLER_1010_85
*1054 FILLER_1010_97
*1055 FILLER_1011_105
*1056 FILLER_1011_111
*1057 FILLER_1011_113
*1058 FILLER_1011_125
*1059 FILLER_1011_137
*1060 FILLER_1011_149
*1061 FILLER_1011_15
*1062 FILLER_1011_161
*1063 FILLER_1011_167
*1064 FILLER_1011_169
*1065 FILLER_1011_181
*1066 FILLER_1011_193
*1067 FILLER_1011_205
*1068 FILLER_1011_217
*1069 FILLER_1011_223
*1070 FILLER_1011_225
*1071 FILLER_1011_237
*1072 FILLER_1011_249
*1073 FILLER_1011_261
*1074 FILLER_1011_27
*1075 FILLER_1011_273
*1076 FILLER_1011_279
*1077 FILLER_1011_281
*1078 FILLER_1011_293
*1079 FILLER_1011_3
*1080 FILLER_1011_305
*1081 FILLER_1011_317
*1082 FILLER_1011_329
*1083 FILLER_1011_335
*1084 FILLER_1011_337
*1085 FILLER_1011_349
*1086 FILLER_1011_361
*1087 FILLER_1011_373
*1088 FILLER_1011_385
*1089 FILLER_1011_39
*1090 FILLER_1011_391
*1091 FILLER_1011_393
*1092 FILLER_1011_405
*1093 FILLER_1011_51
*1094 FILLER_1011_55
*1095 FILLER_1011_57
*1096 FILLER_1011_69
*1097 FILLER_1011_81
*1098 FILLER_1011_93
*1099 FILLER_1012_109
*1100 FILLER_1012_121
*1101 FILLER_1012_133
*1102 FILLER_1012_139
*1103 FILLER_1012_141
*1104 FILLER_1012_15
*1105 FILLER_1012_153
*1106 FILLER_1012_165
*1107 FILLER_1012_177
*1108 FILLER_1012_189
*1109 FILLER_1012_195
*1110 FILLER_1012_197
*1111 FILLER_1012_209
*1112 FILLER_1012_221
*1113 FILLER_1012_233
*1114 FILLER_1012_245
*1115 FILLER_1012_251
*1116 FILLER_1012_253
*1117 FILLER_1012_265
*1118 FILLER_1012_27
*1119 FILLER_1012_277
*1120 FILLER_1012_289
*1121 FILLER_1012_29
*1122 FILLER_1012_3
*1123 FILLER_1012_301
*1124 FILLER_1012_307
*1125 FILLER_1012_309
*1126 FILLER_1012_321
*1127 FILLER_1012_333
*1128 FILLER_1012_345
*1129 FILLER_1012_357
*1130 FILLER_1012_363
*1131 FILLER_1012_365
*1132 FILLER_1012_377
*1133 FILLER_1012_389
*1134 FILLER_1012_401
*1135 FILLER_1012_41
*1136 FILLER_1012_53
*1137 FILLER_1012_65
*1138 FILLER_1012_77
*1139 FILLER_1012_83
*1140 FILLER_1012_85
*1141 FILLER_1012_97
*1142 FILLER_1013_105
*1143 FILLER_1013_111
*1144 FILLER_1013_113
*1145 FILLER_1013_125
*1146 FILLER_1013_137
*1147 FILLER_1013_149
*1148 FILLER_1013_15
*1149 FILLER_1013_161
*1150 FILLER_1013_167
*1151 FILLER_1013_169
*1152 FILLER_1013_181
*1153 FILLER_1013_193
*1154 FILLER_1013_205
*1155 FILLER_1013_217
*1156 FILLER_1013_223
*1157 FILLER_1013_225
*1158 FILLER_1013_237
*1159 FILLER_1013_249
*1160 FILLER_1013_261
*1161 FILLER_1013_27
*1162 FILLER_1013_273
*1163 FILLER_1013_279
*1164 FILLER_1013_281
*1165 FILLER_1013_293
*1166 FILLER_1013_3
*1167 FILLER_1013_305
*1168 FILLER_1013_317
*1169 FILLER_1013_329
*1170 FILLER_1013_335
*1171 FILLER_1013_337
*1172 FILLER_1013_349
*1173 FILLER_1013_361
*1174 FILLER_1013_373
*1175 FILLER_1013_385
*1176 FILLER_1013_39
*1177 FILLER_1013_391
*1178 FILLER_1013_393
*1179 FILLER_1013_405
*1180 FILLER_1013_51
*1181 FILLER_1013_55
*1182 FILLER_1013_57
*1183 FILLER_1013_69
*1184 FILLER_1013_81
*1185 FILLER_1013_93
*1186 FILLER_1014_109
*1187 FILLER_1014_121
*1188 FILLER_1014_133
*1189 FILLER_1014_139
*1190 FILLER_1014_141
*1191 FILLER_1014_15
*1192 FILLER_1014_153
*1193 FILLER_1014_165
*1194 FILLER_1014_177
*1195 FILLER_1014_189
*1196 FILLER_1014_195
*1197 FILLER_1014_197
*1198 FILLER_1014_209
*1199 FILLER_1014_221
*1200 FILLER_1014_233
*1201 FILLER_1014_245
*1202 FILLER_1014_251
*1203 FILLER_1014_253
*1204 FILLER_1014_265
*1205 FILLER_1014_27
*1206 FILLER_1014_277
*1207 FILLER_1014_289
*1208 FILLER_1014_29
*1209 FILLER_1014_3
*1210 FILLER_1014_301
*1211 FILLER_1014_307
*1212 FILLER_1014_309
*1213 FILLER_1014_321
*1214 FILLER_1014_333
*1215 FILLER_1014_345
*1216 FILLER_1014_357
*1217 FILLER_1014_363
*1218 FILLER_1014_365
*1219 FILLER_1014_377
*1220 FILLER_1014_389
*1221 FILLER_1014_401
*1222 FILLER_1014_41
*1223 FILLER_1014_53
*1224 FILLER_1014_65
*1225 FILLER_1014_77
*1226 FILLER_1014_83
*1227 FILLER_1014_85
*1228 FILLER_1014_97
*1229 FILLER_1015_105
*1230 FILLER_1015_111
*1231 FILLER_1015_113
*1232 FILLER_1015_125
*1233 FILLER_1015_137
*1234 FILLER_1015_149
*1235 FILLER_1015_15
*1236 FILLER_1015_161
*1237 FILLER_1015_167
*1238 FILLER_1015_169
*1239 FILLER_1015_181
*1240 FILLER_1015_193
*1241 FILLER_1015_205
*1242 FILLER_1015_217
*1243 FILLER_1015_223
*1244 FILLER_1015_225
*1245 FILLER_1015_237
*1246 FILLER_1015_249
*1247 FILLER_1015_261
*1248 FILLER_1015_27
*1249 FILLER_1015_273
*1250 FILLER_1015_279
*1251 FILLER_1015_281
*1252 FILLER_1015_293
*1253 FILLER_1015_3
*1254 FILLER_1015_305
*1255 FILLER_1015_317
*1256 FILLER_1015_329
*1257 FILLER_1015_335
*1258 FILLER_1015_337
*1259 FILLER_1015_349
*1260 FILLER_1015_361
*1261 FILLER_1015_373
*1262 FILLER_1015_385
*1263 FILLER_1015_39
*1264 FILLER_1015_391
*1265 FILLER_1015_393
*1266 FILLER_1015_405
*1267 FILLER_1015_51
*1268 FILLER_1015_55
*1269 FILLER_1015_57
*1270 FILLER_1015_69
*1271 FILLER_1015_81
*1272 FILLER_1015_93
*1273 FILLER_1016_109
*1274 FILLER_1016_121
*1275 FILLER_1016_133
*1276 FILLER_1016_139
*1277 FILLER_1016_141
*1278 FILLER_1016_15
*1279 FILLER_1016_153
*1280 FILLER_1016_165
*1281 FILLER_1016_177
*1282 FILLER_1016_189
*1283 FILLER_1016_195
*1284 FILLER_1016_197
*1285 FILLER_1016_209
*1286 FILLER_1016_221
*1287 FILLER_1016_233
*1288 FILLER_1016_245
*1289 FILLER_1016_251
*1290 FILLER_1016_253
*1291 FILLER_1016_265
*1292 FILLER_1016_27
*1293 FILLER_1016_277
*1294 FILLER_1016_289
*1295 FILLER_1016_29
*1296 FILLER_1016_3
*1297 FILLER_1016_301
*1298 FILLER_1016_307
*1299 FILLER_1016_309
*1300 FILLER_1016_321
*1301 FILLER_1016_333
*1302 FILLER_1016_345
*1303 FILLER_1016_357
*1304 FILLER_1016_363
*1305 FILLER_1016_365
*1306 FILLER_1016_377
*1307 FILLER_1016_389
*1308 FILLER_1016_401
*1309 FILLER_1016_41
*1310 FILLER_1016_53
*1311 FILLER_1016_65
*1312 FILLER_1016_77
*1313 FILLER_1016_83
*1314 FILLER_1016_85
*1315 FILLER_1016_97
*1316 FILLER_1017_105
*1317 FILLER_1017_111
*1318 FILLER_1017_113
*1319 FILLER_1017_125
*1320 FILLER_1017_137
*1321 FILLER_1017_149
*1322 FILLER_1017_15
*1323 FILLER_1017_161
*1324 FILLER_1017_167
*1325 FILLER_1017_169
*1326 FILLER_1017_181
*1327 FILLER_1017_193
*1328 FILLER_1017_205
*1329 FILLER_1017_217
*1330 FILLER_1017_223
*1331 FILLER_1017_225
*1332 FILLER_1017_237
*1333 FILLER_1017_249
*1334 FILLER_1017_261
*1335 FILLER_1017_27
*1336 FILLER_1017_273
*1337 FILLER_1017_279
*1338 FILLER_1017_281
*1339 FILLER_1017_293
*1340 FILLER_1017_3
*1341 FILLER_1017_305
*1342 FILLER_1017_317
*1343 FILLER_1017_329
*1344 FILLER_1017_335
*1345 FILLER_1017_337
*1346 FILLER_1017_349
*1347 FILLER_1017_361
*1348 FILLER_1017_373
*1349 FILLER_1017_385
*1350 FILLER_1017_39
*1351 FILLER_1017_391
*1352 FILLER_1017_393
*1353 FILLER_1017_405
*1354 FILLER_1017_51
*1355 FILLER_1017_55
*1356 FILLER_1017_57
*1357 FILLER_1017_69
*1358 FILLER_1017_81
*1359 FILLER_1017_93
*1360 FILLER_1018_109
*1361 FILLER_1018_121
*1362 FILLER_1018_133
*1363 FILLER_1018_139
*1364 FILLER_1018_141
*1365 FILLER_1018_15
*1366 FILLER_1018_153
*1367 FILLER_1018_165
*1368 FILLER_1018_177
*1369 FILLER_1018_189
*1370 FILLER_1018_195
*1371 FILLER_1018_197
*1372 FILLER_1018_209
*1373 FILLER_1018_221
*1374 FILLER_1018_233
*1375 FILLER_1018_245
*1376 FILLER_1018_251
*1377 FILLER_1018_253
*1378 FILLER_1018_265
*1379 FILLER_1018_27
*1380 FILLER_1018_277
*1381 FILLER_1018_289
*1382 FILLER_1018_29
*1383 FILLER_1018_3
*1384 FILLER_1018_301
*1385 FILLER_1018_307
*1386 FILLER_1018_309
*1387 FILLER_1018_321
*1388 FILLER_1018_333
*1389 FILLER_1018_345
*1390 FILLER_1018_357
*1391 FILLER_1018_363
*1392 FILLER_1018_365
*1393 FILLER_1018_377
*1394 FILLER_1018_389
*1395 FILLER_1018_401
*1396 FILLER_1018_41
*1397 FILLER_1018_53
*1398 FILLER_1018_65
*1399 FILLER_1018_77
*1400 FILLER_1018_83
*1401 FILLER_1018_85
*1402 FILLER_1018_97
*1403 FILLER_1019_105
*1404 FILLER_1019_111
*1405 FILLER_1019_113
*1406 FILLER_1019_125
*1407 FILLER_1019_137
*1408 FILLER_1019_149
*1409 FILLER_1019_15
*1410 FILLER_1019_161
*1411 FILLER_1019_167
*1412 FILLER_1019_169
*1413 FILLER_1019_181
*1414 FILLER_1019_193
*1415 FILLER_1019_205
*1416 FILLER_1019_217
*1417 FILLER_1019_223
*1418 FILLER_1019_225
*1419 FILLER_1019_237
*1420 FILLER_1019_249
*1421 FILLER_1019_261
*1422 FILLER_1019_27
*1423 FILLER_1019_273
*1424 FILLER_1019_279
*1425 FILLER_1019_281
*1426 FILLER_1019_293
*1427 FILLER_1019_3
*1428 FILLER_1019_305
*1429 FILLER_1019_317
*1430 FILLER_1019_329
*1431 FILLER_1019_335
*1432 FILLER_1019_337
*1433 FILLER_1019_349
*1434 FILLER_1019_361
*1435 FILLER_1019_373
*1436 FILLER_1019_385
*1437 FILLER_1019_39
*1438 FILLER_1019_391
*1439 FILLER_1019_393
*1440 FILLER_1019_405
*1441 FILLER_1019_51
*1442 FILLER_1019_55
*1443 FILLER_1019_57
*1444 FILLER_1019_69
*1445 FILLER_1019_81
*1446 FILLER_1019_93
*1447 FILLER_101_105
*1448 FILLER_101_111
*1449 FILLER_101_113
*1450 FILLER_101_125
*1451 FILLER_101_137
*1452 FILLER_101_149
*1453 FILLER_101_15
*1454 FILLER_101_161
*1455 FILLER_101_167
*1456 FILLER_101_169
*1457 FILLER_101_181
*1458 FILLER_101_193
*1459 FILLER_101_205
*1460 FILLER_101_217
*1461 FILLER_101_223
*1462 FILLER_101_225
*1463 FILLER_101_237
*1464 FILLER_101_249
*1465 FILLER_101_261
*1466 FILLER_101_27
*1467 FILLER_101_273
*1468 FILLER_101_279
*1469 FILLER_101_281
*1470 FILLER_101_293
*1471 FILLER_101_3
*1472 FILLER_101_305
*1473 FILLER_101_317
*1474 FILLER_101_329
*1475 FILLER_101_335
*1476 FILLER_101_337
*1477 FILLER_101_349
*1478 FILLER_101_361
*1479 FILLER_101_373
*1480 FILLER_101_385
*1481 FILLER_101_39
*1482 FILLER_101_391
*1483 FILLER_101_393
*1484 FILLER_101_405
*1485 FILLER_101_51
*1486 FILLER_101_55
*1487 FILLER_101_57
*1488 FILLER_101_69
*1489 FILLER_101_81
*1490 FILLER_101_93
*1491 FILLER_1020_109
*1492 FILLER_1020_121
*1493 FILLER_1020_133
*1494 FILLER_1020_139
*1495 FILLER_1020_141
*1496 FILLER_1020_15
*1497 FILLER_1020_153
*1498 FILLER_1020_165
*1499 FILLER_1020_177
*1500 FILLER_1020_189
*1501 FILLER_1020_195
*1502 FILLER_1020_197
*1503 FILLER_1020_209
*1504 FILLER_1020_221
*1505 FILLER_1020_233
*1506 FILLER_1020_245
*1507 FILLER_1020_251
*1508 FILLER_1020_253
*1509 FILLER_1020_265
*1510 FILLER_1020_27
*1511 FILLER_1020_277
*1512 FILLER_1020_289
*1513 FILLER_1020_29
*1514 FILLER_1020_3
*1515 FILLER_1020_301
*1516 FILLER_1020_307
*1517 FILLER_1020_309
*1518 FILLER_1020_321
*1519 FILLER_1020_333
*1520 FILLER_1020_345
*1521 FILLER_1020_357
*1522 FILLER_1020_363
*1523 FILLER_1020_365
*1524 FILLER_1020_377
*1525 FILLER_1020_389
*1526 FILLER_1020_401
*1527 FILLER_1020_41
*1528 FILLER_1020_53
*1529 FILLER_1020_65
*1530 FILLER_1020_77
*1531 FILLER_1020_83
*1532 FILLER_1020_85
*1533 FILLER_1020_97
*1534 FILLER_1021_105
*1535 FILLER_1021_111
*1536 FILLER_1021_113
*1537 FILLER_1021_125
*1538 FILLER_1021_137
*1539 FILLER_1021_149
*1540 FILLER_1021_15
*1541 FILLER_1021_161
*1542 FILLER_1021_167
*1543 FILLER_1021_169
*1544 FILLER_1021_181
*1545 FILLER_1021_193
*1546 FILLER_1021_205
*1547 FILLER_1021_217
*1548 FILLER_1021_223
*1549 FILLER_1021_225
*1550 FILLER_1021_237
*1551 FILLER_1021_249
*1552 FILLER_1021_261
*1553 FILLER_1021_27