*SPEF "ieee 1481-1999"
*DESIGN "user_proj_example2"
*DATE "11:11:11 Fri 11 11, 1111"
*VENDOR "OpenRCX"
*PROGRAM "Parallel Extraction"
*VERSION "1.0"
*DESIGN_FLOW "NAME_SCOPE LOCAL" "PIN_CAP NONE"
*DIVIDER /
*DELIMITER :
*BUS_DELIMITER []
*T_UNIT 1 NS
*C_UNIT 1 PF
*R_UNIT 1 OHM
*L_UNIT 1 HENRY

*NAME_MAP
*1 io_in[0]
*2 io_in[10]
*3 io_in[11]
*4 io_in[1]
*5 io_in[2]
*6 io_in[3]
*7 io_in[4]
*8 io_in[5]
*9 io_in[6]
*10 io_in[7]
*11 io_in[8]
*12 io_in[9]
*13 net86
*14 net96
*15 net97
*16 net87
*17 net88
*18 net89
*19 net90
*20 net91
*21 net92
*22 net93
*23 net94
*24 net95
*25 io_out[0]
*26 io_out[10]
*27 net106
*28 io_out[1]
*29 io_out[2]
*30 io_out[3]
*31 io_out[4]
*32 io_out[5]
*33 io_out[6]
*34 io_out[7]
*35 io_out[8]
*36 io_out[9]
*37 irq
*40 wb_clk_i
*41 wb_rst_i
*42 wbs_ack_o
*43 wbs_adr_i[0]
*44 wbs_adr_i[10]
*45 wbs_adr_i[11]
*46 wbs_adr_i[12]
*47 wbs_adr_i[13]
*48 wbs_adr_i[14]
*49 wbs_adr_i[15]
*50 wbs_adr_i[16]
*51 wbs_adr_i[17]
*52 wbs_adr_i[18]
*53 wbs_adr_i[19]
*54 wbs_adr_i[1]
*55 wbs_adr_i[20]
*56 wbs_adr_i[21]
*57 wbs_adr_i[22]
*58 wbs_adr_i[23]
*59 wbs_adr_i[24]
*60 wbs_adr_i[25]
*61 wbs_adr_i[26]
*62 wbs_adr_i[27]
*63 wbs_adr_i[28]
*64 wbs_adr_i[29]
*65 wbs_adr_i[2]
*66 wbs_adr_i[30]
*67 wbs_adr_i[31]
*68 wbs_adr_i[3]
*69 wbs_adr_i[4]
*70 wbs_adr_i[5]
*71 wbs_adr_i[6]
*72 wbs_adr_i[7]
*73 wbs_adr_i[8]
*74 wbs_adr_i[9]
*75 wbs_cyc_i
*76 wbs_dat_i[0]
*77 wbs_dat_i[10]
*78 wbs_dat_i[11]
*79 wbs_dat_i[12]
*80 wbs_dat_i[13]
*81 wbs_dat_i[14]
*82 wbs_dat_i[15]
*83 wbs_dat_i[16]
*84 wbs_dat_i[17]
*85 wbs_dat_i[18]
*86 wbs_dat_i[19]
*87 wbs_dat_i[1]
*88 wbs_dat_i[20]
*89 wbs_dat_i[21]
*90 wbs_dat_i[22]
*91 wbs_dat_i[23]
*92 wbs_dat_i[24]
*93 wbs_dat_i[25]
*94 wbs_dat_i[26]
*95 wbs_dat_i[27]
*96 wbs_dat_i[28]
*97 wbs_dat_i[29]
*98 wbs_dat_i[2]
*99 wbs_dat_i[30]
*100 wbs_dat_i[31]
*101 wbs_dat_i[3]
*102 wbs_dat_i[4]
*103 wbs_dat_i[5]
*104 wbs_dat_i[6]
*105 wbs_dat_i[7]
*106 wbs_dat_i[8]
*107 wbs_dat_i[9]
*108 wbs_dat_o[0]
*109 wbs_dat_o[10]
*110 wbs_dat_o[11]
*111 wbs_dat_o[12]
*112 wbs_dat_o[13]
*113 wbs_dat_o[14]
*114 wbs_dat_o[15]
*115 wbs_dat_o[16]
*116 net98
*117 wbs_dat_o[18]
*118 wbs_dat_o[19]
*119 wbs_dat_o[1]
*120 net99
*121 wbs_dat_o[21]
*122 net100
*123 wbs_dat_o[23]
*124 wbs_dat_o[24]
*125 wbs_dat_o[25]
*126 net101
*127 wbs_dat_o[27]
*128 net102
*129 net103
*130 wbs_dat_o[2]
*131 net104
*132 net105
*133 wbs_dat_o[3]
*134 wbs_dat_o[4]
*135 wbs_dat_o[5]
*136 wbs_dat_o[6]
*137 wbs_dat_o[7]
*138 wbs_dat_o[8]
*139 wbs_dat_o[9]
*140 wbs_sel_i[0]
*141 wbs_sel_i[1]
*142 wbs_sel_i[2]
*143 wbs_sel_i[3]
*144 wbs_stb_i
*145 wbs_we_i
*146 Clock_part2\.alarm_reg\[0\]
*147 Clock_part2\.alarm_reg\[10\]
*148 Clock_part2\.alarm_reg\[11\]
*149 Clock_part2\.alarm_reg\[12\]
*150 Clock_part2\.alarm_reg\[13\]
*151 Clock_part2\.alarm_reg\[14\]
*152 Clock_part2\.alarm_reg\[15\]
*153 Clock_part2\.alarm_reg\[1\]
*154 Clock_part2\.alarm_reg\[2\]
*155 Clock_part2\.alarm_reg\[3\]
*156 Clock_part2\.alarm_reg\[4\]
*157 Clock_part2\.alarm_reg\[5\]
*158 Clock_part2\.alarm_reg\[6\]
*159 Clock_part2\.alarm_reg\[7\]
*160 Clock_part2\.alarm_reg\[8\]
*161 Clock_part2\.alarm_reg\[9\]
*162 Clock_part2\.dig_cnt\[0\]
*163 Clock_part2\.dig_cnt\[1\]
*164 Clock_part2\.min_ones\[0\]
*165 Clock_part2\.min_ones\[1\]
*166 Clock_part2\.min_ones\[2\]
*167 Clock_part2\.min_ones\[3\]
*168 Clock_part2\.min_tens\[0\]
*169 Clock_part2\.min_tens\[1\]
*170 Clock_part2\.min_tens\[2\]
*171 Clock_part2\.min_tens\[3\]
*172 Clock_part2\.scan
*173 Clock_part2\.scan_div\[0\]
*174 Clock_part2\.scan_div\[10\]
*175 Clock_part2\.scan_div\[11\]
*176 Clock_part2\.scan_div\[12\]
*177 Clock_part2\.scan_div\[13\]
*178 Clock_part2\.scan_div\[14\]
*179 Clock_part2\.scan_div\[15\]
*180 Clock_part2\.scan_div\[16\]
*181 Clock_part2\.scan_div\[17\]
*182 Clock_part2\.scan_div\[18\]
*183 Clock_part2\.scan_div\[19\]
*184 Clock_part2\.scan_div\[1\]
*185 Clock_part2\.scan_div\[20\]
*186 Clock_part2\.scan_div\[21\]
*187 Clock_part2\.scan_div\[22\]
*188 Clock_part2\.scan_div\[23\]
*189 Clock_part2\.scan_div\[24\]
*190 Clock_part2\.scan_div\[25\]
*191 Clock_part2\.scan_div\[26\]
*192 Clock_part2\.scan_div\[27\]
*193 Clock_part2\.scan_div\[28\]
*194 Clock_part2\.scan_div\[29\]
*195 Clock_part2\.scan_div\[2\]
*196 Clock_part2\.scan_div\[30\]
*197 Clock_part2\.scan_div\[31\]
*198 Clock_part2\.scan_div\[3\]
*199 Clock_part2\.scan_div\[4\]
*200 Clock_part2\.scan_div\[5\]
*201 Clock_part2\.scan_div\[6\]
*202 Clock_part2\.scan_div\[7\]
*203 Clock_part2\.scan_div\[8\]
*204 Clock_part2\.scan_div\[9\]
*205 Clock_part2\.sec
*206 Clock_part2\.sec_div\[0\]
*207 Clock_part2\.sec_div\[10\]
*208 Clock_part2\.sec_div\[11\]
*209 Clock_part2\.sec_div\[12\]
*210 Clock_part2\.sec_div\[13\]
*211 Clock_part2\.sec_div\[14\]
*212 Clock_part2\.sec_div\[15\]
*213 Clock_part2\.sec_div\[16\]
*214 Clock_part2\.sec_div\[17\]
*215 Clock_part2\.sec_div\[18\]
*216 Clock_part2\.sec_div\[19\]
*217 Clock_part2\.sec_div\[1\]
*218 Clock_part2\.sec_div\[20\]
*219 Clock_part2\.sec_div\[21\]
*220 Clock_part2\.sec_div\[22\]
*221 Clock_part2\.sec_div\[23\]
*222 Clock_part2\.sec_div\[24\]
*223 Clock_part2\.sec_div\[25\]
*224 Clock_part2\.sec_div\[26\]
*225 Clock_part2\.sec_div\[27\]
*226 Clock_part2\.sec_div\[28\]
*227 Clock_part2\.sec_div\[29\]
*228 Clock_part2\.sec_div\[2\]
*229 Clock_part2\.sec_div\[30\]
*230 Clock_part2\.sec_div\[31\]
*231 Clock_part2\.sec_div\[3\]
*232 Clock_part2\.sec_div\[4\]
*233 Clock_part2\.sec_div\[5\]
*234 Clock_part2\.sec_div\[6\]
*235 Clock_part2\.sec_div\[7\]
*236 Clock_part2\.sec_div\[8\]
*237 Clock_part2\.sec_div\[9\]
*238 Clock_part2\.sec_ones\[0\]
*239 Clock_part2\.sec_ones\[1\]
*240 Clock_part2\.sec_ones\[2\]
*241 Clock_part2\.sec_ones\[3\]
*242 Clock_part2\.sec_tens\[0\]
*243 Clock_part2\.sec_tens\[1\]
*244 Clock_part2\.sec_tens\[2\]
*245 Clock_part2\.sec_tens\[3\]
*246 _0000_
*247 _0001_
*248 _0002_
*249 _0003_
*250 _0004_
*251 _0005_
*252 _0006_
*253 _0007_
*254 _0008_
*255 _0009_
*256 _0010_
*257 _0011_
*258 _0012_
*259 _0013_
*260 _0014_
*261 _0015_
*262 _0016_
*263 _0017_
*264 _0018_
*265 _0019_
*266 _0020_
*267 _0021_
*268 _0022_
*269 _0023_
*270 _0024_
*271 _0025_
*272 _0026_
*273 _0027_
*274 _0028_
*275 _0029_
*276 _0030_
*277 _0031_
*278 _0032_
*279 _0033_
*280 _0034_
*281 _0035_
*282 _0036_
*283 _0037_
*284 _0038_
*285 _0039_
*286 _0040_
*287 _0041_
*288 _0042_
*289 _0043_
*290 _0044_
*291 _0045_
*292 _0046_
*293 _0047_
*294 _0048_
*295 _0049_
*296 _0050_
*297 _0051_
*298 _0052_
*299 _0053_
*300 _0054_
*301 _0055_
*302 _0056_
*303 _0057_
*304 _0058_
*305 _0059_
*306 _0060_
*307 _0061_
*308 _0062_
*309 _0063_
*310 _0064_
*311 _0065_
*312 _0066_
*313 _0067_
*314 _0068_
*315 _0069_
*316 _0070_
*317 _0071_
*318 _0072_
*319 _0073_
*320 _0074_
*321 _0075_
*322 _0076_
*323 _0077_
*324 _0078_
*325 _0079_
*326 _0080_
*327 _0081_
*328 _0082_
*329 _0083_
*330 _0084_
*331 _0085_
*332 _0086_
*333 _0087_
*334 _0088_
*335 _0089_
*336 _0090_
*337 _0091_
*338 _0092_
*339 _0093_
*340 _0094_
*341 _0095_
*342 _0096_
*343 _0097_
*344 _0098_
*345 _0099_
*346 _0100_
*347 _0101_
*348 _0102_
*349 _0103_
*350 _0104_
*351 _0105_
*352 _0106_
*353 _0107_
*354 _0108_
*355 _0109_
*356 _0110_
*357 _0111_
*358 _0112_
*359 _0113_
*360 _0114_
*361 _0115_
*362 _0116_
*363 _0117_
*364 _0118_
*365 _0119_
*366 _0120_
*367 _0121_
*368 _0122_
*369 _0123_
*370 _0124_
*371 _0125_
*372 _0126_
*373 _0127_
*374 _0128_
*375 _0129_
*376 _0130_
*377 _0131_
*378 _0132_
*379 _0133_
*380 _0134_
*381 _0135_
*382 _0136_
*383 _0137_
*384 _0138_
*385 _0139_
*386 _0140_
*387 _0141_
*388 _0142_
*389 _0143_
*390 _0144_
*391 _0145_
*392 _0146_
*393 _0147_
*394 _0148_
*395 _0149_
*396 _0150_
*397 _0151_
*398 _0152_
*399 _0153_
*400 _0154_
*401 _0155_
*402 _0156_
*403 _0157_
*404 _0158_
*405 _0159_
*406 _0160_
*407 _0161_
*408 _0162_
*409 _0163_
*410 _0164_
*411 _0165_
*412 _0166_
*413 _0167_
*414 _0168_
*415 _0169_
*416 _0170_
*417 _0171_
*418 _0172_
*419 _0173_
*420 _0174_
*421 _0175_
*422 _0176_
*423 _0177_
*424 _0178_
*425 _0179_
*426 _0180_
*427 _0181_
*428 _0182_
*429 _0183_
*430 _0184_
*431 _0185_
*432 _0186_
*433 _0187_
*434 _0188_
*435 _0189_
*436 _0190_
*437 _0191_
*438 _0192_
*439 _0193_
*440 _0194_
*441 _0195_
*442 _0196_
*443 _0197_
*444 _0198_
*445 _0199_
*446 _0200_
*447 _0201_
*448 _0202_
*449 _0203_
*450 _0204_
*451 _0205_
*452 _0206_
*453 _0207_
*454 _0208_
*455 _0209_
*456 _0210_
*457 _0211_
*458 _0212_
*459 _0213_
*460 _0214_
*461 _0215_
*462 _0216_
*463 _0217_
*464 _0218_
*465 _0219_
*466 _0220_
*467 _0221_
*468 _0222_
*469 _0223_
*470 _0224_
*471 _0225_
*472 _0226_
*473 _0227_
*474 _0228_
*475 _0229_
*476 _0230_
*477 _0231_
*478 _0232_
*479 _0233_
*480 _0234_
*481 _0235_
*482 _0236_
*483 _0237_
*484 _0238_
*485 _0239_
*486 _0240_
*487 _0241_
*488 _0242_
*489 _0243_
*490 _0244_
*491 _0245_
*492 _0246_
*493 _0247_
*494 _0248_
*495 _0249_
*496 _0250_
*497 _0251_
*498 _0252_
*499 _0253_
*500 _0254_
*501 _0255_
*502 _0256_
*503 _0257_
*504 _0258_
*505 _0259_
*506 _0260_
*507 _0261_
*508 _0262_
*509 _0263_
*510 _0264_
*511 _0265_
*512 _0266_
*513 _0267_
*514 _0268_
*515 _0269_
*516 _0270_
*517 _0271_
*518 _0272_
*519 _0273_
*520 _0274_
*521 _0275_
*522 _0276_
*523 _0277_
*524 _0278_
*525 _0279_
*526 _0280_
*527 _0281_
*528 _0282_
*529 _0283_
*530 _0284_
*531 _0285_
*532 _0286_
*533 _0287_
*534 _0288_
*535 _0289_
*536 _0290_
*537 _0291_
*538 _0292_
*539 _0293_
*540 _0294_
*541 _0295_
*542 _0296_
*543 _0297_
*544 _0298_
*545 _0299_
*546 _0300_
*547 _0301_
*548 _0302_
*549 _0303_
*550 _0304_
*551 _0305_
*552 _0306_
*553 _0307_
*554 _0308_
*555 _0309_
*556 _0310_
*557 _0311_
*558 _0312_
*559 _0313_
*560 _0314_
*561 _0315_
*562 _0316_
*563 _0317_
*564 _0318_
*565 _0319_
*566 _0320_
*567 _0321_
*568 _0322_
*569 _0323_
*570 _0324_
*571 _0325_
*572 _0326_
*573 _0327_
*574 _0328_
*575 _0329_
*576 _0330_
*577 _0331_
*578 _0332_
*579 _0333_
*580 _0334_
*581 _0335_
*582 _0336_
*583 _0337_
*584 _0338_
*585 _0339_
*586 _0340_
*587 _0341_
*588 _0342_
*589 _0343_
*590 _0344_
*591 _0345_
*592 _0346_
*593 _0347_
*594 _0348_
*595 _0349_
*596 _0350_
*597 _0351_
*598 _0352_
*599 _0353_
*600 _0354_
*601 _0355_
*602 _0356_
*603 _0357_
*604 _0358_
*605 _0359_
*606 _0360_
*607 _0361_
*608 _0362_
*609 _0363_
*610 _0364_
*611 _0365_
*612 _0366_
*613 _0367_
*614 _0368_
*615 _0369_
*616 _0370_
*617 _0371_
*618 _0372_
*619 _0373_
*620 _0374_
*621 _0375_
*622 _0376_
*623 _0377_
*624 _0378_
*625 _0379_
*626 _0380_
*627 _0381_
*628 _0382_
*629 _0383_
*630 _0384_
*631 _0385_
*632 _0386_
*633 _0387_
*634 _0388_
*635 _0389_
*636 _0390_
*637 _0391_
*638 _0392_
*639 _0393_
*640 _0394_
*641 _0395_
*642 _0396_
*643 _0397_
*644 _0398_
*645 _0399_
*646 _0400_
*647 _0401_
*648 _0402_
*649 _0403_
*650 _0404_
*651 _0405_
*652 _0406_
*653 _0407_
*654 _0408_
*655 _0409_
*656 _0410_
*657 _0411_
*658 _0412_
*659 _0413_
*660 _0414_
*661 _0415_
*662 _0416_
*663 _0417_
*664 _0418_
*665 _0419_
*666 _0420_
*667 _0421_
*668 _0422_
*669 _0423_
*670 _0424_
*671 _0425_
*672 _0426_
*673 _0427_
*674 _0428_
*675 _0429_
*676 _0430_
*677 _0431_
*678 _0432_
*679 _0433_
*680 _0434_
*681 _0435_
*682 _0436_
*683 _0437_
*684 _0438_
*685 _0439_
*686 _0440_
*687 clknet_0_wb_clk_i
*688 clknet_3_0__leaf_wb_clk_i
*689 clknet_3_1__leaf_wb_clk_i
*690 clknet_3_2__leaf_wb_clk_i
*691 clknet_3_3__leaf_wb_clk_i
*692 clknet_3_4__leaf_wb_clk_i
*693 clknet_3_5__leaf_wb_clk_i
*694 clknet_3_6__leaf_wb_clk_i
*695 clknet_3_7__leaf_wb_clk_i
*696 net1
*697 net10
*698 net107
*699 net108
*700 net109
*701 net11
*702 net110
*703 net111
*704 net112
*705 net113
*706 net114
*707 net115
*708 net116
*709 net117
*710 net118
*711 net119
*712 net12
*713 net120
*714 net121
*715 net122
*716 net123
*717 net124
*718 net125
*719 net126
*720 net127
*721 net128
*722 net129
*723 net13
*724 net130
*725 net131
*726 net132
*727 net133
*728 net134
*729 net135
*730 net136
*731 net137
*732 net138
*733 net139
*734 net14
*735 net140
*736 net141
*737 net142
*738 net143
*739 net144
*740 net15
*741 net16
*742 net17
*743 net18
*744 net19
*745 net2
*746 net20
*747 net21
*748 net22
*749 net23
*750 net24
*751 net25
*752 net26
*753 net27
*754 net28
*755 net29
*756 net3
*757 net30
*758 net31
*759 net32
*760 net33
*761 net34
*762 net35
*763 net36
*764 net37
*765 net38
*766 net39
*767 net4
*768 net40
*769 net41
*770 net42
*771 net43
*772 net44
*773 net45
*774 net46
*775 net47
*776 net48
*777 net49
*778 net5
*779 net50
*780 net51
*781 net52
*782 net53
*783 net54
*784 net55
*785 net56
*786 net57
*787 net58
*788 net59
*789 net6
*790 net60
*791 net61
*792 net62
*793 net63
*794 net64
*795 net65
*796 net66
*797 net67
*798 net68
*799 net69
*800 net7
*801 net70
*802 net71
*803 net72
*804 net73
*805 net74
*806 net75
*807 net76
*808 net77
*809 net78
*810 net79
*811 net8
*812 net80
*813 net81
*814 net82
*815 net83
*816 net84
*817 net85
*818 net9
*819 FILLER_0_0_19
*820 FILLER_0_0_241
*821 FILLER_0_0_245
*822 FILLER_0_0_249
*823 FILLER_0_0_253
*824 FILLER_0_0_257
*825 FILLER_0_0_274
*826 FILLER_0_0_297
*827 FILLER_0_0_305
*828 FILLER_0_0_312
*829 FILLER_0_0_334
*830 FILLER_0_0_353
*831 FILLER_0_0_357
*832 FILLER_0_0_363
*833 FILLER_0_0_365
*834 FILLER_0_0_385
*835 FILLER_0_0_391
*836 FILLER_0_0_396
*837 FILLER_0_0_405
*838 FILLER_0_0_57
*839 FILLER_0_0_74
*840 FILLER_0_1000_109
*841 FILLER_0_1000_121
*842 FILLER_0_1000_133
*843 FILLER_0_1000_139
*844 FILLER_0_1000_141
*845 FILLER_0_1000_15
*846 FILLER_0_1000_153
*847 FILLER_0_1000_165
*848 FILLER_0_1000_177
*849 FILLER_0_1000_189
*850 FILLER_0_1000_195
*851 FILLER_0_1000_197
*852 FILLER_0_1000_209
*853 FILLER_0_1000_221
*854 FILLER_0_1000_233
*855 FILLER_0_1000_245
*856 FILLER_0_1000_251
*857 FILLER_0_1000_253
*858 FILLER_0_1000_265
*859 FILLER_0_1000_27
*860 FILLER_0_1000_277
*861 FILLER_0_1000_289
*862 FILLER_0_1000_29
*863 FILLER_0_1000_3
*864 FILLER_0_1000_301
*865 FILLER_0_1000_307
*866 FILLER_0_1000_309
*867 FILLER_0_1000_321
*868 FILLER_0_1000_333
*869 FILLER_0_1000_345
*870 FILLER_0_1000_357
*871 FILLER_0_1000_363
*872 FILLER_0_1000_365
*873 FILLER_0_1000_377
*874 FILLER_0_1000_389
*875 FILLER_0_1000_401
*876 FILLER_0_1000_41
*877 FILLER_0_1000_53
*878 FILLER_0_1000_65
*879 FILLER_0_1000_77
*880 FILLER_0_1000_83
*881 FILLER_0_1000_85
*882 FILLER_0_1000_97
*883 FILLER_0_1001_105
*884 FILLER_0_1001_111
*885 FILLER_0_1001_113
*886 FILLER_0_1001_125
*887 FILLER_0_1001_137
*888 FILLER_0_1001_149
*889 FILLER_0_1001_15
*890 FILLER_0_1001_161
*891 FILLER_0_1001_167
*892 FILLER_0_1001_169
*893 FILLER_0_1001_181
*894 FILLER_0_1001_193
*895 FILLER_0_1001_205
*896 FILLER_0_1001_217
*897 FILLER_0_1001_223
*898 FILLER_0_1001_225
*899 FILLER_0_1001_237
*900 FILLER_0_1001_249
*901 FILLER_0_1001_261
*902 FILLER_0_1001_27
*903 FILLER_0_1001_273
*904 FILLER_0_1001_279
*905 FILLER_0_1001_281
*906 FILLER_0_1001_293
*907 FILLER_0_1001_3
*908 FILLER_0_1001_305
*909 FILLER_0_1001_317
*910 FILLER_0_1001_329
*911 FILLER_0_1001_335
*912 FILLER_0_1001_337
*913 FILLER_0_1001_349
*914 FILLER_0_1001_361
*915 FILLER_0_1001_373
*916 FILLER_0_1001_385
*917 FILLER_0_1001_39
*918 FILLER_0_1001_391
*919 FILLER_0_1001_393
*920 FILLER_0_1001_405
*921 FILLER_0_1001_51
*922 FILLER_0_1001_55
*923 FILLER_0_1001_57
*924 FILLER_0_1001_69
*925 FILLER_0_1001_81
*926 FILLER_0_1001_93
*927 FILLER_0_1002_109
*928 FILLER_0_1002_121
*929 FILLER_0_1002_133
*930 FILLER_0_1002_139
*931 FILLER_0_1002_141
*932 FILLER_0_1002_15
*933 FILLER_0_1002_153
*934 FILLER_0_1002_165
*935 FILLER_0_1002_177
*936 FILLER_0_1002_189
*937 FILLER_0_1002_195
*938 FILLER_0_1002_197
*939 FILLER_0_1002_209
*940 FILLER_0_1002_221
*941 FILLER_0_1002_233
*942 FILLER_0_1002_245
*943 FILLER_0_1002_251
*944 FILLER_0_1002_253
*945 FILLER_0_1002_265
*946 FILLER_0_1002_27
*947 FILLER_0_1002_277
*948 FILLER_0_1002_289
*949 FILLER_0_1002_29
*950 FILLER_0_1002_3
*951 FILLER_0_1002_301
*952 FILLER_0_1002_307
*953 FILLER_0_1002_309
*954 FILLER_0_1002_321
*955 FILLER_0_1002_333
*956 FILLER_0_1002_345
*957 FILLER_0_1002_357
*958 FILLER_0_1002_363
*959 FILLER_0_1002_365
*960 FILLER_0_1002_377
*961 FILLER_0_1002_389
*962 FILLER_0_1002_401
*963 FILLER_0_1002_41
*964 FILLER_0_1002_53
*965 FILLER_0_1002_65
*966 FILLER_0_1002_77
*967 FILLER_0_1002_83
*968 FILLER_0_1002_85
*969 FILLER_0_1002_97
*970 FILLER_0_1003_105
*971 FILLER_0_1003_111
*972 FILLER_0_1003_113
*973 FILLER_0_1003_125
*974 FILLER_0_1003_137
*975 FILLER_0_1003_149
*976 FILLER_0_1003_15
*977 FILLER_0_1003_161
*978 FILLER_0_1003_167
*979 FILLER_0_1003_169
*980 FILLER_0_1003_181
*981 FILLER_0_1003_193
*982 FILLER_0_1003_205
*983 FILLER_0_1003_217
*984 FILLER_0_1003_223
*985 FILLER_0_1003_225
*986 FILLER_0_1003_237
*987 FILLER_0_1003_249
*988 FILLER_0_1003_261
*989 FILLER_0_1003_27
*990 FILLER_0_1003_273
*991 FILLER_0_1003_279
*992 FILLER_0_1003_281
*993 FILLER_0_1003_293
*994 FILLER_0_1003_3
*995 FILLER_0_1003_305
*996 FILLER_0_1003_317
*997 FILLER_0_1003_329
*998 FILLER_0_1003_335
*999 FILLER_0_1003_337
*1000 FILLER_0_1003_349
*1001 FILLER_0_1003_361
*1002 FILLER_0_1003_373
*1003 FILLER_0_1003_385
*1004 FILLER_0_1003_39
*1005 FILLER_0_1003_391
*1006 FILLER_0_1003_393
*1007 FILLER_0_1003_405
*1008 FILLER_0_1003_51
*1009 FILLER_0_1003_55
*1010 FILLER_0_1003_57
*1011 FILLER_0_1003_69
*1012 FILLER_0_1003_81
*1013 FILLER_0_1003_93
*1014 FILLER_0_1004_109
*1015 FILLER_0_1004_121
*1016 FILLER_0_1004_133
*1017 FILLER_0_1004_139
*1018 FILLER_0_1004_141
*1019 FILLER_0_1004_15
*1020 FILLER_0_1004_153
*1021 FILLER_0_1004_165
*1022 FILLER_0_1004_177
*1023 FILLER_0_1004_189
*1024 FILLER_0_1004_195
*1025 FILLER_0_1004_197
*1026 FILLER_0_1004_209
*1027 FILLER_0_1004_221
*1028 FILLER_0_1004_233
*1029 FILLER_0_1004_245
*1030 FILLER_0_1004_251
*1031 FILLER_0_1004_253
*1032 FILLER_0_1004_265
*1033 FILLER_0_1004_27
*1034 FILLER_0_1004_277
*1035 FILLER_0_1004_289
*1036 FILLER_0_1004_29
*1037 FILLER_0_1004_3
*1038 FILLER_0_1004_301
*1039 FILLER_0_1004_307
*1040 FILLER_0_1004_309
*1041 FILLER_0_1004_321
*1042 FILLER_0_1004_333
*1043 FILLER_0_1004_345
*1044 FILLER_0_1004_357
*1045 FILLER_0_1004_363
*1046 FILLER_0_1004_365
*1047 FILLER_0_1004_377
*1048 FILLER_0_1004_389
*1049 FILLER_0_1004_401
*1050 FILLER_0_1004_41
*1051 FILLER_0_1004_53
*1052 FILLER_0_1004_65
*1053 FILLER_0_1004_77
*1054 FILLER_0_1004_83
*1055 FILLER_0_1004_85
*1056 FILLER_0_1004_97
*1057 FILLER_0_1005_105
*1058 FILLER_0_1005_111
*1059 FILLER_0_1005_113
*1060 FILLER_0_1005_125
*1061 FILLER_0_1005_137
*1062 FILLER_0_1005_149
*1063 FILLER_0_1005_15
*1064 FILLER_0_1005_161
*1065 FILLER_0_1005_167
*1066 FILLER_0_1005_169
*1067 FILLER_0_1005_181
*1068 FILLER_0_1005_193
*1069 FILLER_0_1005_205
*1070 FILLER_0_1005_217
*1071 FILLER_0_1005_223
*1072 FILLER_0_1005_225
*1073 FILLER_0_1005_237
*1074 FILLER_0_1005_249
*1075 FILLER_0_1005_261
*1076 FILLER_0_1005_27
*1077 FILLER_0_1005_273
*1078 FILLER_0_1005_279
*1079 FILLER_0_1005_281
*1080 FILLER_0_1005_293
*1081 FILLER_0_1005_3
*1082 FILLER_0_1005_305
*1083 FILLER_0_1005_317
*1084 FILLER_0_1005_329
*1085 FILLER_0_1005_335
*1086 FILLER_0_1005_337
*1087 FILLER_0_1005_349
*1088 FILLER_0_1005_361
*1089 FILLER_0_1005_373
*1090 FILLER_0_1005_385
*1091 FILLER_0_1005_39
*1092 FILLER_0_1005_391
*1093 FILLER_0_1005_393
*1094 FILLER_0_1005_405
*1095 FILLER_0_1005_51
*1096 FILLER_0_1005_55
*1097 FILLER_0_1005_57
*1098 FILLER_0_1005_69
*1099 FILLER_0_1005_81
*1100 FILLER_0_1005_93
*1101 FILLER_0_1006_109
*1102 FILLER_0_1006_121
*1103 FILLER_0_1006_133
*1104 FILLER_0_1006_139
*1105 FILLER_0_1006_141
*1106 FILLER_0_1006_15
*1107 FILLER_0_1006_153
*1108 FILLER_0_1006_165
*1109 FILLER_0_1006_177
*1110 FILLER_0_1006_189
*1111 FILLER_0_1006_195
*1112 FILLER_0_1006_197
*1113 FILLER_0_1006_209
*1114 FILLER_0_1006_221
*1115 FILLER_0_1006_233
*1116 FILLER_0_1006_245
*1117 FILLER_0_1006_251
*1118 FILLER_0_1006_253
*1119 FILLER_0_1006_265
*1120 FILLER_0_1006_27
*1121 FILLER_0_1006_277
*1122 FILLER_0_1006_289
*1123 FILLER_0_1006_29
*1124 FILLER_0_1006_3
*1125 FILLER_0_1006_301
*1126 FILLER_0_1006_307
*1127 FILLER_0_1006_309
*1128 FILLER_0_1006_321
*1129 FILLER_0_1006_333
*1130 FILLER_0_1006_345
*1131 FILLER_0_1006_357
*1132 FILLER_0_1006_363
*1133 FILLER_0_1006_365
*1134 FILLER_0_1006_377
*1135 FILLER_0_1006_389
*1136 FILLER_0_1006_401
*1137 FILLER_0_1006_41
*1138 FILLER_0_1006_53
*1139 FILLER_0_1006_65
*1140 FILLER_0_1006_77
*1141 FILLER_0_1006_83
*1142 FILLER_0_1006_85
*1143 FILLER_0_1006_97
*1144 FILLER_0_1007_105
*1145 FILLER_0_1007_111
*1146 FILLER_0_1007_113
*1147 FILLER_0_1007_125
*1148 FILLER_0_1007_137
*1149 FILLER_0_1007_149
*1150 FILLER_0_1007_15
*1151 FILLER_0_1007_161
*1152 FILLER_0_1007_167
*1153 FILLER_0_1007_169
*1154 FILLER_0_1007_181
*1155 FILLER_0_1007_193
*1156 FILLER_0_1007_205
*1157 FILLER_0_1007_217
*1158 FILLER_0_1007_223
*1159 FILLER_0_1007_225
*1160 FILLER_0_1007_237
*1161 FILLER_0_1007_249
*1162 FILLER_0_1007_261
*1163 FILLER_0_1007_27
*1164 FILLER_0_1007_273
*1165 FILLER_0_1007_279
*1166 FILLER_0_1007_281
*1167 FILLER_0_1007_293
*1168 FILLER_0_1007_3
*1169 FILLER_0_1007_305
*1170 FILLER_0_1007_317
*1171 FILLER_0_1007_329
*1172 FILLER_0_1007_335
*1173 FILLER_0_1007_337
*1174 FILLER_0_1007_349
*1175 FILLER_0_1007_361
*1176 FILLER_0_1007_373
*1177 FILLER_0_1007_385
*1178 FILLER_0_1007_39
*1179 FILLER_0_1007_391
*1180 FILLER_0_1007_393
*1181 FILLER_0_1007_405
*1182 FILLER_0_1007_51
*1183 FILLER_0_1007_55
*1184 FILLER_0_1007_57
*1185 FILLER_0_1007_69
*1186 FILLER_0_1007_81
*1187 FILLER_0_1007_93
*1188 FILLER_0_1008_109
*1189 FILLER_0_1008_121
*1190 FILLER_0_1008_133
*1191 FILLER_0_1008_139
*1192 FILLER_0_1008_141
*1193 FILLER_0_1008_15
*1194 FILLER_0_1008_153
*1195 FILLER_0_1008_165
*1196 FILLER_0_1008_177
*1197 FILLER_0_1008_189
*1198 FILLER_0_1008_195
*1199 FILLER_0_1008_197
*1200 FILLER_0_1008_209
*1201 FILLER_0_1008_221
*1202 FILLER_0_1008_233
*1203 FILLER_0_1008_245
*1204 FILLER_0_1008_251
*1205 FILLER_0_1008_253
*1206 FILLER_0_1008_265
*1207 FILLER_0_1008_27
*1208 FILLER_0_1008_277
*1209 FILLER_0_1008_289
*1210 FILLER_0_1008_29
*1211 FILLER_0_1008_3
*1212 FILLER_0_1008_301
*1213 FILLER_0_1008_307
*1214 FILLER_0_1008_309
*1215 FILLER_0_1008_321
*1216 FILLER_0_1008_333
*1217 FILLER_0_1008_345
*1218 FILLER_0_1008_357
*1219 FILLER_0_1008_363
*1220 FILLER_0_1008_365
*1221 FILLER_0_1008_377
*1222 FILLER_0_1008_389
*1223 FILLER_0_1008_401
*1224 FILLER_0_1008_41
*1225 FILLER_0_1008_53
*1226 FILLER_0_1008_65
*1227 FILLER_0_1008_77
*1228 FILLER_0_1008_83
*1229 FILLER_0_1008_85
*1230 FILLER_0_1008_97
*1231 FILLER_0_1009_105
*1232 FILLER_0_1009_111
*1233 FILLER_0_1009_113
*1234 FILLER_0_1009_125
*1235 FILLER_0_1009_137
*1236 FILLER_0_1009_149
*1237 FILLER_0_1009_15
*1238 FILLER_0_1009_161
*1239 FILLER_0_1009_167
*1240 FILLER_0_1009_169
*1241 FILLER_0_1009_181
*1242 FILLER_0_1009_193
*1243 FILLER_0_1009_205
*1244 FILLER_0_1009_217
*1245 FILLER_0_1009_223
*1246 FILLER_0_1009_225
*1247 FILLER_0_1009_237
*1248 FILLER_0_1009_249
*1249 FILLER_0_1009_261
*1250 FILLER_0_1009_27
*1251 FILLER_0_1009_273
*1252 FILLER_0_1009_279
*1253 FILLER_0_1009_281
*1254 FILLER_0_1009_293
*1255 FILLER_0_1009_3
*1256 FILLER_0_1009_305
*1257 FILLER_0_1009_317
*1258 FILLER_0_1009_329
*1259 FILLER_0_1009_335
*1260 FILLER_0_1009_337
*1261 FILLER_0_1009_349
*1262 FILLER_0_1009_361
*1263 FILLER_0_1009_373
*1264 FILLER_0_1009_385
*1265 FILLER_0_1009_39
*1266 FILLER_0_1009_391
*1267 FILLER_0_1009_393
*1268 FILLER_0_1009_405
*1269 FILLER_0_1009_51
*1270 FILLER_0_1009_55
*1271 FILLER_0_1009_57
*1272 FILLER_0_1009_69
*1273 FILLER_0_1009_81
*1274 FILLER_0_1009_93
*1275 FILLER_0_100_109
*1276 FILLER_0_100_121
*1277 FILLER_0_100_133
*1278 FILLER_0_100_139
*1279 FILLER_0_100_141
*1280 FILLER_0_100_15
*1281 FILLER_0_100_153
*1282 FILLER_0_100_165
*1283 FILLER_0_100_177
*1284 FILLER_0_100_189
*1285 FILLER_0_100_195
*1286 FILLER_0_100_197
*1287 FILLER_0_100_209
*1288 FILLER_0_100_221
*1289 FILLER_0_100_233
*1290 FILLER_0_100_245
*1291 FILLER_0_100_251
*1292 FILLER_0_100_253
*1293 FILLER_0_100_265
*1294 FILLER_0_100_27
*1295 FILLER_0_100_277
*1296 FILLER_0_100_289
*1297 FILLER_0_100_29
*1298 FILLER_0_100_3
*1299 FILLER_0_100_301
*1300 FILLER_0_100_307
*1301 FILLER_0_100_309
*1302 FILLER_0_100_321
*1303 FILLER_0_100_333
*1304 FILLER_0_100_345
*1305 FILLER_0_100_357
*1306 FILLER_0_100_363
*1307 FILLER_0_100_365
*1308 FILLER_0_100_377
*1309 FILLER_0_100_389
*1310 FILLER_0_100_401
*1311 FILLER_0_100_41
*1312 FILLER_0_100_53
*1313 FILLER_0_100_65
*1314 FILLER_0_100_77
*1315 FILLER_0_100_83
*1316 FILLER_0_100_85
*1317 FILLER_0_100_97
*1318 FILLER_0_1010_109
*1319 FILLER_0_1010_121
*1320 FILLER_0_1010_133
*1321 FILLER_0_1010_139
*1322 FILLER_0_1010_141
*1323 FILLER_0_1010_15
*1324 FILLER_0_1010_153
*1325 FILLER_0_1010_165
*1326 FILLER_0_1010_177
*1327 FILLER_0_1010_189
*1328 FILLER_0_1010_195
*1329 FILLER_0_1010_197
*1330 FILLER_0_1010_209
*1331 FILLER_0_1010_221
*1332 FILLER_0_1010_233
*1333 FILLER_0_1010_245
*1334 FILLER_0_1010_251
*1335 FILLER_0_1010_253
*1336 FILLER_0_1010_265
*1337 FILLER_0_1010_27
*1338 FILLER_0_1010_277
*1339 FILLER_0_1010_289
*1340 FILLER_0_1010_29
*1341 FILLER_0_1010_3
*1342 FILLER_0_1010_301
*1343 FILLER_0_1010_307
*1344 FILLER_0_1010_309
*1345 FILLER_0_1010_321
*1346 FILLER_0_1010_333
*1347 FILLER_0_1010_345
*1348 FILLER_0_1010_357
*1349 FILLER_0_1010_363
*1350 FILLER_0_1010_365
*1351 FILLER_0_1010_377
*1352 FILLER_0_1010_389
*1353 FILLER_0_1010_401
*1354 FILLER_0_1010_41
*1355 FILLER_0_1010_53
*1356 FILLER_0_1010_65
*1357 FILLER_0_1010_77
*1358 FILLER_0_1010_83
*1359 FILLER_0_1010_85
*1360 FILLER_0_1010_97
*1361 FILLER_0_1011_105
*1362 FILLER_0_1011_111
*1363 FILLER_0_1011_113
*1364 FILLER_0_1011_125
*1365 FILLER_0_1011_137
*1366 FILLER_0_1011_149
*1367 FILLER_0_1011_15
*1368 FILLER_0_1011_161
*1369 FILLER_0_1011_167
*1370 FILLER_0_1011_169
*1371 FILLER_0_1011_181
*1372 FILLER_0_1011_193
*1373 FILLER_0_1011_205
*1374 FILLER_0_1011_217
*1375 FILLER_0_1011_223
*1376 FILLER_0_1011_225
*1377 FILLER_0_1011_237
*1378 FILLER_0_1011_249
*1379 FILLER_0_1011_261
*1380 FILLER_0_1011_27
*1381 FILLER_0_1011_273
*1382 FILLER_0_1011_279
*1383 FILLER_0_1011_281
*1384 FILLER_0_1011_293
*1385 FILLER_0_1011_3
*1386 FILLER_0_1011_305
*1387 FILLER_0_1011_317
*1388 FILLER_0_1011_329
*1389 FILLER_0_1011_335
*1390 FILLER_0_1011_337
*1391 FILLER_0_1011_349
*1392 FILLER_0_1011_361
*1393 FILLER_0_1011_373
*1394 FILLER_0_1011_385
*1395 FILLER_0_1011_39
*1396 FILLER_0_1011_391
*1397 FILLER_0_1011_393
*1398 FILLER_0_1011_405
*1399 FILLER_0_1011_51
*1400 FILLER_0_1011_55
*1401 FILLER_0_1011_57
*1402 FILLER_0_1011_69
*1403 FILLER_0_1011_81
*1404 FILLER_0_1011_93
*1405 FILLER_0_1012_109
*1406 FILLER_0_1012_121
*1407 FILLER_0_1012_133
*1408 FILLER_0_1012_139
*1409 FILLER_0_1012_141
*1410 FILLER_0_1012_15
*1411 FILLER_0_1012_153
*1412 FILLER_0_1012_165
*1413 FILLER_0_1012_177
*1414 FILLER_0_1012_189
*1415 FILLER_0_1012_195
*1416 FILLER_0_1012_197
*1417 FILLER_0_1012_209
*1418 FILLER_0_1012_221
*1419 FILLER_0_1012_233
*1420 FILLER_0_1012_245
*1421 FILLER_0_1012_251
*1422 FILLER_0_1012_253
*1423 FILLER_0_1012_265
*1424 FILLER_0_1012_27
*1425 FILLER_0_1012_277
*1426 FILLER_0_1012_289
*1427 FILLER_0_1012_29
*1428 FILLER_0_1012_3
*1429 FILLER_0_1012_301
*1430 FILLER_0_1012_307
*1431 FILLER_0_1012_309
*1432 FILLER_0_1012_321
*1433 FILLER_0_1012_333
*1434 FILLER_0_1012_345
*1435 FILLER_0_1012_357
*1436 FILLER_0_1012_363
*1437 FILLER_0_1012_365
*1438 FILLER_0_1012_377
*1439 FILLER_0_1012_389
*1440 FILLER_0_1012_401
*1441 FILLER_0_1012_41
*1442 FILLER_0_1012_53
*1443 FILLER_0_1012_65
*1444 FILLER_0_1012_77
*1445 FILLER_0_1012_83
*1446 FILLER_0_1012_85
*1447 FILLER_0_1012_97
*1448 FILLER_0_1013_105
*1449 FILLER_0_1013_111
*1450 FILLER_0_1013_113
*1451 FILLER_0_1013_125
*1452 FILLER_0_1013_137
*1453 FILLER_0_1013_149
*1454 FILLER_0_1013_15
*1455 FILLER_0_1013_161
*1456 FILLER_0_1013_167
*1457 FILLER_0_1013_169
*1458 FILLER_0_1013_181
*1459 FILLER_0_1013_193
*1460 FILLER_0_1013_205
*1461 FILLER_0_1013_217
*1462 FILLER_0_1013_223
*1463 FILLER_0_1013_225
*1464 FILLER_0_1013_237
*1465 FILLER_0_1013_249
*1466 FILLER_0_1013_261
*1467 FILLER_0_1013_27
*1468 FILLER_0_1013_273
*1469 FILLER_0_1013_279
*1470 FILLER_0_1013_281
*1471 FILLER_0_1013_293
*1472 FILLER_0_1013_3
*1473 FILLER_0_1013_305
*1474 FILLER_0_1013_317
*1475 FILLER_0_1013_329
*1476 FILLER_0_1013_335
*1477 FILLER_0_1013_337
*1478 FILLER_0_1013_349
*1479 FILLER_0_1013_361
*1480 FILLER_0_1013_373
*1481 FILLER_0_1013_385
*1482 FILLER_0_1013_39
*1483 FILLER_0_1013_391
*1484 FILLER_0_1013_393
*1485 FILLER_0_1013_405
*1486 FILLER_0_1013_51
*1487 FILLER_0_1013_55
*1488 FILLER_0_1013_57
*1489 FILLER_0_1013_69
*1490 FILLER_0_1013_81
*1491 FILLER_0_1013_93
*1492 FILLER_0_1014_109
*1493 FILLER_0_1014_121
*1494 FILLER_0_1014_133
*1495 FILLER_0_1014_139
*1496 FILLER_0_1014_141
*1497 FILLER_0_1014_15
*1498 FILLER_0_1014_153
*1499 FILLER_0_1014_165
*1500 FILLER_0_1014_177
*1501 FILLER_0_1014_189
*1502 FILLER_0_1014_195
*1503 FILLER_0_1014_197
*1504 FILLER_0_1014_209
*1505 FILLER_0_1014_221
*1506 FILLER_0_1014_233
*1507 FILLER_0_1014_245
*1508 FILLER_0_1014_251
*1509 FILLER_0_1014_253
*1510 FILLER_0_1014_265
*1511 FILLER_0_1014_27
*1512 FILLER_0_1014_277
*1513 FILLER_0_1014_289
*1514 FILLER_0_1014_29
*1515 FILLER_0_1014_3
*1516 FILLER_0_1014_301
*1517 FILLER_0_1014_307
*1518 FILLER_0_1014_309
*1519 FILLER_0_1014_321
*1520 FILLER_0_1014_333
*1521 FILLER_0_1014_345
*1522 FILLER_0_1014_357
*1523 FILLER_0_1014_363
*1524 FILLER_0_1014_365
*1525 FILLER_0_1014_377
*1526 FILLER_0_1014_389
*1527 FILLER_0_1014_401
*1528 FILLER_0_1014_41
*1529 FILLER_0_1014_53
*1530 FILLER_0_1014_65
*1531 FILLER_0_1014_77
*1532 FILLER_0_1014_83
*1533 FILLER_0_1014_85
*1534 FILLER_0_1014_97
*1535 FILLER_0_1015_105
*1536 FILLER_0_1015_111
*1537 FILLER_0_1015_113
*1538 FILLER_0_1015_125
*1539 FILLER_0_1015_137
*1540 FILLER_0_1015_149
*1541 FILLER_0_1015_15
*1542 FILLER_0_1015_161
*1543 FILLER_0_1015_167
*1544 FILLER_0_1015_169
*1545 FILLER_0_1015_181
*1546 FILLER_0_1015_193
*1547 FILLER_0_1015_205
*1548 FILLER_0_1015_217
*1549 FILLER_0_1015_223
*1550 FILLER_0_1015_225
*1551 FILLER_0_1015_237
*1552 FILLER_0_1015_249
*1553 FILLER_0_1015_261
*1554 FILLER_0_1015_27
*1555 FILLER_0_1015_273
*1556 FILLER_0_1015_279
*1557 FILLER_0_1015_281